nproc:1
Pcrystal executable in: /users/fbodo/SVN_PUB_NEW/bin/Linux-gfortran_new/std/Pcrystal
Master system: Linux c031 5.15.0-47-generic #51-Ubuntu SMP Thu Aug 11 07:51:15 UTC 2022 x86_64 x86_64 x86_64 GNU/Linux
ls -ltr $BINDIR
total 420344
-rwxr-xr-x 1 fbodo linuxusers 101580248 Jul 11 07:52 properties
-rwxr-xr-x 1 fbodo linuxusers 101643032 Jul 11 07:52 Pproperties
-rwxr-xr-x 1 fbodo linuxusers 112716416 Jul 11 07:52 crystal
-rwxr-xr-x 1 fbodo linuxusers 112783328 Jul 11 07:52 Pcrystal
================================================================================
Module loading in /lustre/scratch/client/users/fbodo/prova/tmp_p1435233
================================================================================
Loading gcc and openmpi modules ...
1) # module load gcc/11.2.0
2) # module load openmpi/4.1.6-a4ksrza
================================================================================
Starting Pcrystal SLURM job
================================================================================
Time: Thu Jul 24 08:08:39 AM CDT 2025
SLURM job ID: 20025107
Master hostname: c031
User: fbodo
Input file: hTaAs_lda_EOS_ext.d12
Output file: hTaAs_lda_EOS_ext.out
Number of processors: 1
Nodes list: c031
================================================================================
Creating temporary directory /lustre/scratch/client/users/fbodo/prova/tmp_p1435233 on each node...
Copying input file hTaAs_lda_EOS_ext.d12 on each node...
Copying Pcrystal on each node...
================================================================================
Contents of input file
================================================================================
Hexagonal Phase
CRYSTAL
0 0 0
187
3.38741936     3.49517317
2
273 -0.333333333 0.333333333 0.
233 0.333333333 -0.333333333 0.5
EOS
RESTART2
RANGE
0.87 1.02 13
PRANGE
0 35 30
END
END
273 13
STUTSC
0 0 5 2. 1.                               ecp-60-dhf-QZV
  24.473650944      0.48239461915E-01
  18.721372549     -0.11130803862
  11.500000000      -4.3871385439
  10.350000000       14.773276225
  9.7732783383      -10.295986879
0 0 1 0. 1.
  3.8125414615       1.0000000000
0 0 1 0. 1.
  1.0507430630       1.0000000000
0 0 1 0. 1.
 0.49732275755       1.0000000000
0 0 1 0. 1.
 0.15602650970       1.0000000000
0 2 4 6. 1.
  23.290413736      0.13565200450E-01
  17.000000000     -0.74349450243E-01
  12.008186536      0.14135027656
  5.0278760583     -0.29185231563
0 2 1 0. 1.
  1.1937124184      0.52092880326
0 2 1 0. 1.
 0.57889707053       1.0000000000
0 2 1 0. 1.
 0.27225198801       1.0000000000
0 2 1 0. 1.
 0.10000000000       1.0000000000
0 3 3 2. 1.
  6.4242952246      0.94769104117E-01
  5.1122245125     -0.18492990619
  1.2009867996      0.44048238003
0 3 1 0. 1.
 0.51923142085       1.0000000000
0 3 1 0. 1.
 0.21323328623       1.0000000000
233 5
STUTLC
0 0 3 2. 1           ecp28MDF
3.069423 0.332502
2.268204 -0.565786
0.858631 -0.168471
0 0 1 0. 1
0.415970 1.0
0 0 1 0. 1
0.180588 1.0
0 2 3 6. 1
1.275524 -0.321208
0.942483 0.300478
0.289765 0.466271
0 2 1 0. 1
0.125374 1.0
99 0
END
DFT
SVWN
ENDDFT
SHRINK
30 30
MAXCYCLE
200
NOSHIFT
FMIXING
70
TOLINTEG
8 8 8 8 20
SMEAR
0.001
TOLDEE
7
END
================================================================================
Time: Thu Jul 24 08:08:39 AM CDT 2025
Starting Pcrystal job in /lustre/scratch/client/users/fbodo/prova/tmp_p1435233 on each node...
================================================================================

command /hpc/m3/spack/opt/spack/linux-ubuntu22.04-zen3/gcc-11.2.0/openmpi-4.1.6-a4ksrzarq4qdqcx545m6o47ytlwsgqyk/bin/mpirun -np 1 Pcrystal < /lustre/scratch/client/users/fbodo/prova/tmp_p1435233/INPUT
/hpc/m3/spack/opt/spack/linux-ubuntu22.04-zen3/gcc-11.2.0/openmpi-4.1.6-a4ksrzarq4qdqcx545m6o47ytlwsgqyk/bin/mpirun
 PROCESS            0  OF            1  WORKING

         
 *******************************************************************************
 *                                                                             *
 *                               CRYSTAL23                                     *
 *                      public : 1.0.1 - October 2022                          *
 *                       HTTP://WWW.CRYSTAL.UNITO.IT                           *
 *                                                                             *
 *                              MAIN AUTHORS                                   *
 *                                                                             *
 *  R. DOVESI(1,11), V.R. SAUNDERS(2), C. ROETTI(1,11), R. ORLANDO(1,11),      *
 *  C.M. ZICOVICH-WILSON(1,3), F. PASCALE(4), B. CIVALLERI(1,11),              *
 *  K. DOLL(5), N.M. HARRISON(6), I.J. BUSH(7), Ph. D'ARCO(8),                 *
 *  M. LLUNELL(9), M. CAUSA'(10), Y. NOEL(8), L. MASCHIO(1,11), A. ERBA(1,11)  *
 *  M. RE'RAT(14), S. CASASSA(1,11), B.G. SEARLE(2), J.K. DESMARAIS(1)         *
 *                                                                             *
 *        CONTRIBUTIONS TO THE CODE HAVE ALSO BEEN GIVEN BY                    *
 *                                                                             *
 *  M. FERRABONE(1,11), M. DE LA PIERRE(1,11), M. FERRERO(1,11),               *
 *  J. BAIMA(1,11), E. ALBANESE(1,11), M.F. PEINTINGER(12), R. BAST(13),       *
 *  B. KIRTMAN(15), V. LACIVITA(1,11), R. DEMICHELIS(1,16)                     *
 *  G. BRANDEBURG(17), S. SALUSTRO(1,11), G. SANSONE(1,11)                     *
 *  M.T. RUGGIERO(18), L.E. DAGA(1), L. DONA'(1), A. COSSARD(1)                *
 *                                                                             *
 * (1) THEORETICAL CHEMISTRY GROUP - UNIVERSITA' DI TORINO - TORINO (ITALY)    *
 * (2) SCIENTIFIC COMPUTING DEPARTMENT - STFC DARESBURY (UK)                   *
 * (3) UNIVERSIDAD AUTONOMA DEL ESTADO DE MORELOS - CUERNAVACA (MEXICO)        *
 * (4) UNIVERSITE' DE LORRAINE - NANCY (FRANCE)                                *
 * (5) UNIVERSITAET STUTTGART- STUTTGART (GERMANY)                             *
 * (6) IMPERIAL COLLEGE - LONDON (UK)                                          *
 * (7) SCIENTIFIC COMPUTING DEPARTMENT - STFC RAL (UK)                         *
 * (8) UPMC - SORBONNE UNIVERSITES - PARIS (FRANCE)                            *
 * (9) UNIVERSIDAD DE BARCELONA - BARCELONA (SPAIN)                            *
 *(10) UNIVERSITA' DI NAPOLI "FEDERICO II" - NAPOLI (ITALY)                    *
 *(11) NIS - NANOSTRUCTURED INTERFACES AND SURFACES - TORINO (ITALY)           *
 *(12) MPI FUER CHEMISCHE ENERGIEKONVERSION - MUELHEIM AN DER RUHR (GERMANY)   *
 *(13) UNIVERSITY OF TROMSO - TROMSO (NORWAY)                                  *
 *(14) UNIVERSITE' DE PAU ET DES PAYS DE L'ADOUR - PAU (FRANCE)                *
 *(15) UNIVERSITY OF CALIFORNIA SANTA BARBARA - SANTA BARBARA (USA)            *
 *(16) CURTIN UNIVERSITY - PERTH (AUSTRALIA)                                   *
 *(17) UNIVERSITY COLLEGE LONDON - LONDON (UK)                                 *
 *(18) UNIVERSITY OF VERMONT - BURLINGTON (USA)                                *
 *                                                                             *
 *******************************************************************************
 EEEEEEEEEE STARTING  DATE 24 07 2025 TIME 08:08:39.9
 Hexagonal Phase                                                                 

 CRYSTAL CALCULATION
 (INPUT ACCORDING TO THE INTERNATIONAL TABLES FOR X-RAY CRYSTALLOGRAPHY)
 CRYSTAL FAMILY                       :  HEXAGONAL   
 CRYSTAL CLASS  (GROTH - 1921)        :  DITRIGONAL DIPYRAMIDAL               

 SPACE GROUP (NONCENTROSYMMETRIC)     :  P -6 M 2        

 LATTICE PARAMETERS  (ANGSTROMS AND DEGREES) - CONVENTIONAL CELL
        A           B           C        ALPHA        BETA       GAMMA
     3.38742     3.38742     3.49517    90.00000    90.00000   120.00000


 NUMBER OF IRREDUCIBLE ATOMS IN THE CONVENTIONAL CELL:    2

 INPUT COORDINATES

 ATOM AT. N.              COORDINATES
   1 273    -3.333333330000E-01  3.333333330000E-01  0.000000000000E+00
   2 233     3.333333330000E-01 -3.333333330000E-01  5.000000000000E-01

 *******************************************************************************

 << INFORMATION >>: FROM NOW ON, ALL COORDINATES REFER TO THE PRIMITIVE CELL

 *******************************************************************************

 LATTICE PARAMETERS  (ANGSTROMS AND DEGREES) - PRIMITIVE CELL
       A          B          C        ALPHA      BETA     GAMMA        VOLUME
    3.38742    3.38742    3.49517    90.00000  90.00000 120.00000     34.732597

 COORDINATES OF THE EQUIVALENT ATOMS (FRACTIONAL UNITS)

 N. ATOM EQUIV AT. N.          X                  Y                  Z

   1   1   1  273 TA   -3.33333333000E-01  3.33333333000E-01  0.00000000000E+00

   2   2   1  233 AS    3.33333333000E-01 -3.33333333000E-01 -5.00000000000E-01

 NUMBER OF SYMMETRY OPERATORS         :   12
 *******************************************************************************
 * GEOMETRY EDITING - INPUT COORDINATES ARE GIVEN IN ANGSTROM         
 *******************************************************************************

 GEOMETRY NOW FULLY CONSISTENT WITH THE GROUP
 INFORMATION **** NEW DEFAULT **** FINALRUN 4 FOR GEOMETRY OPTIMIZATIONS
 INFORMATION **** NEW DEFAULT **** OPTGEOM OPTIMIZES BOTH ATOMIC COORDINATES AND CELL PARAMETERS
 INFORMATION **** NEW DEFAULT **** TOL. ON ATOMIC DISP TO REDEFINE REF. GEOMETRY: 0.8 Angs
 INFORMATION **** NEW DEFAULT **** N POINTS TO REDEFINE REF. GEOMETRY: N OF OPT DEGS OF FREEDOM
 INFORMATION **** NEW DEFAULT **** TOL. ON ENERGY TO REDEFINE REF. GEOMETRY: 10**-3*(5*N. ATOMS)

 IMPORTANT INFORMATION:
 THE COORDINATE SYSTEM ADOPTED IN THE OPTIMIZATION IS NOT IN
 GENERAL HOMOGENEOUS UNITS. FOR THIS REASON THE GRADIENT AND 
 HESSIAN MATRIX IN TERMS OF THIS SYSTEM ARE GIVEN WITHOUT
 UNITS. FOR MORE DETAILS SEE THE MANUAL.

 INITIAL TRUST RADIUS         0.50000 MAXIMUM TRUST RADIUS               4.00000
 MAXIMUM GRADIENT COMPONENT   0.00045 MAXIMUM DISPLACEMENT COMPONENT     0.00180
 R.M.S. OF GRADIENT COMPONENT 0.00030 R.M.S. OF DISPLACEMENT COMPONENTS  0.00120
 THRESHOLD ON ENERGY CHANGE 0.100E-06 EXTRAPOLATING POLYNOMIAL ORDER           2
 MAXIMUM ALLOWED NUMBER OF STEPS   -1 SORTING OF ENERGY POINTS:               NO
 ANALYTICAL  GRADIENT                 HESSIAN UPDATING                      BFGS
 STEP SIZE NUMERICAL GRADIENT 0.00100
 INITIAL HESSIAN MATRIX: SCHLEGEL MODEL 2
 *******************************************************************************


 EOSEOSEOSEOSEOSEOSEOSEOSEOSEOSEOSEOSEOSEOSEOSEOSEOSEOSEOSEOSEOSEOSEOSEOSEOSEOS

                       EQUATION OF STATE CALCULATION

 INFORMATION **** TOLDEX **** CONVERGENCE CRITERION FOR RMS DISPLACEMENT MODIFIED  6.200000E-04
 INFORMATION **** TOLDEG **** MODIFY CONVERGENCE CRITERION FOR RMS GRADIENT  3.000000E-04
 INFORMATION **** TOLDEE **** CONVERGENCE CRITERION FOR ENERGY MODIFIED: 10**-           8

 GCALCO - MAX INDICES DIRECT LATTICE VECTOR    15    15    13
 NO.OF VECTORS CREATED 6999 STARS  383 RMAX    73.14910 BOHR

 GEOMETRY FOR WAVE FUNCTION - DIMENSIONALITY OF THE SYSTEM    3
 (NON PERIODIC DIRECTION: LATTICE PARAMETER FORMALLY SET TO 500)
 *******************************************************************************
 LATTICE PARAMETERS (ANGSTROMS AND DEGREES) - BOHR = 0.5291772083 ANGSTROM
 PRIMITIVE CELL - CENTRING CODE 1/0 VOLUME=    34.732597 - DENSITY 12.233 g/cm^3
         A              B              C           ALPHA      BETA       GAMMA 
     3.38741936     3.38741936     3.49517317    90.000000  90.000000 120.000000
 *******************************************************************************
 ATOMS IN THE ASYMMETRIC UNIT    2 - ATOMS IN THE UNIT CELL:    2
     ATOM                 X/A                 Y/B                 Z/C    
 *******************************************************************************
      1 T 273 TA   -3.333333333333E-01  3.333333333333E-01  0.000000000000E+00
      2 T 233 AS    3.333333333333E-01 -3.333333333333E-01 -5.000000000000E-01

 T = ATOM BELONGING TO THE ASYMMETRIC UNIT

 ****   12 SYMMOPS - TRANSLATORS IN FRACTIONAL UNITS
 **** MATRICES AND TRANSLATORS IN THE CRYSTALLOGRAPHIC REFERENCE FRAME
   V INV                    ROTATION MATRICES                   TRANSLATORS
   1   1  1.00  0.00  0.00  0.00  1.00  0.00  0.00  0.00  1.00  0.00  0.00  0.00
   2   3  0.00 -1.00  0.00  1.00 -1.00  0.00  0.00  0.00  1.00  0.00  0.00  0.00
   3   2 -1.00  1.00  0.00 -1.00 -0.00  0.00  0.00  0.00  1.00  0.00  0.00  0.00
   4   4  0.00 -1.00  0.00 -1.00  0.00  0.00  0.00  0.00 -1.00  0.00  0.00  0.00
   5   5  1.00  0.00  0.00  1.00 -1.00  0.00  0.00  0.00 -1.00  0.00  0.00  0.00
   6   6 -1.00  1.00  0.00  0.00  1.00  0.00  0.00  0.00 -1.00  0.00  0.00  0.00
   7   7 -1.00  1.00  0.00  0.00  1.00  0.00  0.00  0.00  1.00  0.00  0.00  0.00
   8   8  1.00  0.00  0.00  1.00 -1.00  0.00  0.00  0.00  1.00  0.00  0.00  0.00
   9   9  0.00 -1.00  0.00 -1.00  0.00  0.00  0.00  0.00  1.00  0.00  0.00  0.00
  10  10  1.00  0.00  0.00 -0.00  1.00  0.00  0.00  0.00 -1.00  0.00  0.00  0.00
  11  12 -1.00  1.00  0.00 -1.00 -0.00  0.00  0.00  0.00 -1.00  0.00  0.00  0.00
  12  11  0.00 -1.00  0.00  1.00 -1.00  0.00  0.00  0.00 -1.00  0.00  0.00  0.00

 DIRECT LATTICE VECTORS CARTESIAN COMPONENTS (ANGSTROM)
          X                    Y                    Z
   0.293359121903E+01  -0.169370968000E+01   0.000000000000E+00
   0.000000000000E+00   0.338741936000E+01   0.000000000000E+00
   0.000000000000E+00   0.000000000000E+00   0.349517317000E+01


 CARTESIAN COORDINATES - PRIMITIVE CELL
 *******************************************************************************
 *      ATOM          X(ANGSTROM)         Y(ANGSTROM)         Z(ANGSTROM)
 *******************************************************************************
    1   273 TA   -9.778637396771E-01 -1.693709680000E+00  0.000000000000E+00
    2   233 AS   -1.955727479354E+00 -1.253596989178E-16  1.747586585000E+00

 *******************************************************************************
 *** PSEUDOPOTENTIAL INFORMATION ***
 *******************************************************************************

 ATOMIC NUMBER  73, NUCLEAR CHARGE 13.000, STUTTGART SMALL CORE    PSEUDOPOTENTIAL
   TYPE       EXPONENT    C.(AREP)            C.(SOREP)   N      EXPONENT    C.(AREP)     C.(SOREP)   N
  P0 TMS    10.3180690  454.6006490    0.0000000   0    10.5402670    2.8379750    0.0000000   2
             2.5747260   -0.8147360    0.0000000   0
  P1 TMS     8.7433420   96.9107830 -193.8215660   0     7.9162230  195.8504320  195.8504320   0
             9.2757360    4.8125240   -9.6250470   2     8.1016750    6.3385120    6.3385120   2
             2.0771270   -0.4591730    0.9183450   0     2.7503720   -0.6445860   -0.6445860   0
  P2 TMS     5.4473140   45.9699760  -45.9699760   0     5.2125450   69.6389720   46.4259810   0
             5.8843580    0.8029330   -0.8029330   2     5.6495790    0.4295950    0.2863970   2
             1.3881800   -0.3072270    0.3072270   0     1.2943980   -0.4615600   -0.3077070   0
  P3 TMS     2.1612750    5.7577730   -3.8385150   0     2.1259390    7.6781670    3.8390830   0
  P4 TMS     3.1459200   -5.6840660    2.8420330   0     3.1279420   -7.0623130   -2.8249250   0

 ATOMIC NUMBER  33, NUCLEAR CHARGE  5.000, STUTTGART LARGE CORE    PSEUDOPOTENTIAL
   TYPE       EXPONENT    C.(AREP)            C.(SOREP)   N      EXPONENT    C.(AREP)     C.(SOREP)   N
  P0 TMS     3.6251500   54.9261640    0.0000000   0
  P1 TMS     3.4069530   26.0012120  -34.6682820   0     3.2601950   32.9351990   32.9351990   0
  P2 TMS     1.3559500    2.6297420   -2.6297420   0     1.3418430    3.9300510    2.6200340   0
  P3 TMS     5.3038500   -2.5680850    1.7120560   0     5.4861710   -4.6529180   -2.3264590   0

 *******************************************************************************
 LOCAL ATOMIC FUNCTIONS BASIS SET
 *******************************************************************************
   ATOM   X(AU)   Y(AU)   Z(AU)  N. TYPE  EXPONENT  S COEF   P COEF   D/F/G COEF
 *******************************************************************************
   1 TA  -1.848  -3.201   0.000
                                  1 S  
                                         2.447E+01 4.824E-02 0.000E+00 0.000E+00
                                         1.872E+01-1.113E-01 0.000E+00 0.000E+00
                                         1.150E+01-4.387E+00 0.000E+00 0.000E+00
                                         1.035E+01 1.477E+01 0.000E+00 0.000E+00
                                         9.773E+00-1.030E+01 0.000E+00 0.000E+00
                                  2 S  
                                         3.813E+00 1.000E+00 0.000E+00 0.000E+00
                                  3 S  
                                         1.051E+00 1.000E+00 0.000E+00 0.000E+00
                                  4 S  
                                         4.973E-01 1.000E+00 0.000E+00 0.000E+00
                                  5 S  
                                         1.560E-01 1.000E+00 0.000E+00 0.000E+00
                           6-     8 P  
                                         2.329E+01 0.000E+00 1.357E-02 0.000E+00
                                         1.700E+01 0.000E+00-7.435E-02 0.000E+00
                                         1.201E+01 0.000E+00 1.414E-01 0.000E+00
                                         5.028E+00 0.000E+00-2.919E-01 0.000E+00
                           9-    11 P  
                                         1.194E+00 0.000E+00 5.209E-01 0.000E+00
                          12-    14 P  
                                         5.789E-01 0.000E+00 1.000E+00 0.000E+00
                          15-    17 P  
                                         2.723E-01 0.000E+00 1.000E+00 0.000E+00
                          18-    20 P  
                                         1.000E-01 0.000E+00 1.000E+00 0.000E+00
                          21-    25 D  
                                         6.424E+00 0.000E+00 0.000E+00 9.477E-02
                                         5.112E+00 0.000E+00 0.000E+00-1.849E-01
                                         1.201E+00 0.000E+00 0.000E+00 4.405E-01
                          26-    30 D  
                                         5.192E-01 0.000E+00 0.000E+00 1.000E+00
                          31-    35 D  
                                         2.132E-01 0.000E+00 0.000E+00 1.000E+00
   2 AS  -3.696  -0.000   3.302
                                 36 S  
                                         3.069E+00 3.325E-01 0.000E+00 0.000E+00
                                         2.268E+00-5.658E-01 0.000E+00 0.000E+00
                                         8.586E-01-1.685E-01 0.000E+00 0.000E+00
                                 37 S  
                                         4.160E-01 1.000E+00 0.000E+00 0.000E+00
                                 38 S  
                                         1.806E-01 1.000E+00 0.000E+00 0.000E+00
                          39-    41 P  
                                         1.276E+00 0.000E+00-3.212E-01 0.000E+00
                                         9.425E-01 0.000E+00 3.005E-01 0.000E+00
                                         2.898E-01 0.000E+00 4.663E-01 0.000E+00
                          42-    44 P  
                                         1.254E-01 0.000E+00 1.000E+00 0.000E+00
 INFORMATION **** SET_MPP **** PCRYSTAL CALCULATION
 INFORMATION **** READM2 **** NEW DEFAULT: FOCK/KS MATRIX MIXING SET TO 30 %
 INFORMATION **** READM2 **** NEW DEFAULT: FULL DIRECT SCF MODE
 INFORMATION **** READM2 **** NEW DEFAULT: COULOMB BIPOLAR BUFFER SET TO 32 Mb
 INFORMATION **** READM2 **** NEW DEFAULT: EXCHANGE BIPOLAR BUFFER SET TO 32 Mb

 *******************************************************************************
 NEW DEFAULT: DFT INTEGRATION GRID INCREASED TO XLGRID
 NEW DEFAULT: DIIS ACCELERATOR ACTIVE
 USE KEYWORD NODIIS TO TURN IT OFF
 *******************************************************************************

 INFORMATION **** MAXCYCLE **** MAX NUMBER OF SCF CYCLES SET TO         200
 INFORMATION **** NOSHIFT **** LEVEL SHIFTER DISABLED
 INFORMATION **** TOLINTEG **** COULOMB AND EXCHANGE SERIES TOLERANCES MODIFIED
 INFORMATION **** SMEAR **** FERMI SMEARING ACTIVE
 FERMI SMEARING - TEMPERATURE SMEARING OF FERMI SURFACE  0.1000E-02
 INFORMATION **** TOLDEE **** SCF TOL ON TOTAL ENERGY SET TO           7
 *******************************************************************************
 N. OF ATOMS PER CELL         2  COULOMB OVERLAP TOL         (T1) 10**   -8
 NUMBER OF SHELLS            18  COULOMB PENETRATION TOL     (T2) 10**   -8
 NUMBER OF AO                44  EXCHANGE OVERLAP TOL        (T3) 10**   20
 N. OF ELECTRONS PER CELL    18  EXCHANGE PSEUDO OVP (F(G))  (T4) 10**   20
 CORE ELECTRONS PER CELL      0  EXCHANGE PSEUDO OVP (P(G))  (T5) 10**   20
 N. OF SYMMETRY OPERATORS    12  POLE ORDER IN MONO ZONE                  4
 *******************************************************************************
 TYPE OF CALCULATION :  RESTRICTED CLOSED SHELL
 KOHN-SHAM HAMILTONIAN

 (EXCHANGE)[CORRELATION] FUNCTIONAL:(DIRAC-SLATER LDA)[VOSKO-WILK-NUSAIR]

 CORE  PSEUDO POTENTIAL         TOL. ON PSEUDO              (TP) 10**- 6

 CAPPA:IS1 30;IS2 30;IS3 30; K PTS MONK NET1456; SYMMOPS:K SPACE  24;G SPACE  12

 *******************************************************************************
 MAX NUMBER OF SCF CYCLES     200  CONVERGENCE ON DELTAP        10**-17
 WEIGHT OF F(I) IN F(I+1)      70% CONVERGENCE ON ENERGY        10**- 7
 SHRINK. FACT.(MONKH.)   30 30 30  NUMBER OF K POINTS IN THE IBZ   1456
 SHRINKING FACTOR(GILAT NET)   30  NUMBER OF K POINTS(GILAT NET)   1456
 *******************************************************************************
 *** K POINTS COORDINATES (OBLIQUE COORDINATES IN UNITS OF IS = 30)
   1-R(  0  0  0)   2-C(  1  0  0)   3-C(  2  0  0)   4-C(  3  0  0)
   5-C(  4  0  0)   6-C(  5  0  0)   7-C(  6  0  0)   8-C(  7  0  0)
   9-C(  8  0  0)  10-C(  9  0  0)  11-C( 10  0  0)  12-C( 11  0  0)
  13-C( 12  0  0)  14-C( 13  0  0)  15-C( 14  0  0)  16-R( 15  0  0)
  17-C(  1  1  0)  18-C(  2  1  0)  19-C(  3  1  0)  20-C(  4  1  0)
  21-C(  5  1  0)  22-C(  6  1  0)  23-C(  7  1  0)  24-C(  8  1  0)
  25-C(  9  1  0)  26-C( 10  1  0)  27-C( 11  1  0)  28-C( 12  1  0)
  29-C( 13  1  0)  30-C( 14  1  0)  31-C(  2  2  0)  32-C(  3  2  0)
  33-C(  4  2  0)  34-C(  5  2  0)  35-C(  6  2  0)  36-C(  7  2  0)
  37-C(  8  2  0)  38-C(  9  2  0)  39-C( 10  2  0)  40-C( 11  2  0)
  41-C( 12  2  0)  42-C( 13  2  0)  43-C( 14  2  0)  44-C(  3  3  0)
  45-C(  4  3  0)  46-C(  5  3  0)  47-C(  6  3  0)  48-C(  7  3  0)
  49-C(  8  3  0)  50-C(  9  3  0)  51-C( 10  3  0)  52-C( 11  3  0)
  53-C( 12  3  0)  54-C( 13  3  0)  55-C(  4  4  0)  56-C(  5  4  0)
  57-C(  6  4  0)  58-C(  7  4  0)  59-C(  8  4  0)  60-C(  9  4  0)
  61-C( 10  4  0)  62-C( 11  4  0)  63-C( 12  4  0)  64-C( 13  4  0)
  65-C(  5  5  0)  66-C(  6  5  0)  67-C(  7  5  0)  68-C(  8  5  0)
  69-C(  9  5  0)  70-C( 10  5  0)  71-C( 11  5  0)  72-C( 12  5  0)
  73-C(  6  6  0)  74-C(  7  6  0)  75-C(  8  6  0)  76-C(  9  6  0)
  77-C( 10  6  0)  78-C( 11  6  0)  79-C( 12  6  0)  80-C(  7  7  0)
  81-C(  8  7  0)  82-C(  9  7  0)  83-C( 10  7  0)  84-C( 11  7  0)
  85-C(  8  8  0)  86-C(  9  8  0)  87-C( 10  8  0)  88-C( 11  8  0)
  89-C(  9  9  0)  90-C( 10  9  0)  91-C( 10 10  0)  92-C(  0  0  1)
  93-C(  1  0  1)  94-C(  2  0  1)  95-C(  3  0  1)  96-C(  4  0  1)
  97-C(  5  0  1)  98-C(  6  0  1)  99-C(  7  0  1) 100-C(  8  0  1)
 101-C(  9  0  1) 102-C( 10  0  1) 103-C( 11  0  1) 104-C( 12  0  1)
 105-C( 13  0  1) 106-C( 14  0  1) 107-C( 15  0  1) 108-C(  1  1  1)
 109-C(  2  1  1) 110-C(  3  1  1) 111-C(  4  1  1) 112-C(  5  1  1)
 113-C(  6  1  1) 114-C(  7  1  1) 115-C(  8  1  1) 116-C(  9  1  1)
 117-C( 10  1  1) 118-C( 11  1  1) 119-C( 12  1  1) 120-C( 13  1  1)
 121-C( 14  1  1) 122-C(  2  2  1) 123-C(  3  2  1) 124-C(  4  2  1)
 125-C(  5  2  1) 126-C(  6  2  1) 127-C(  7  2  1) 128-C(  8  2  1)
 129-C(  9  2  1) 130-C( 10  2  1) 131-C( 11  2  1) 132-C( 12  2  1)
 133-C( 13  2  1) 134-C( 14  2  1) 135-C(  3  3  1) 136-C(  4  3  1)
 137-C(  5  3  1) 138-C(  6  3  1) 139-C(  7  3  1) 140-C(  8  3  1)
 141-C(  9  3  1) 142-C( 10  3  1) 143-C( 11  3  1) 144-C( 12  3  1)
 145-C( 13  3  1) 146-C(  4  4  1) 147-C(  5  4  1) 148-C(  6  4  1)
 149-C(  7  4  1) 150-C(  8  4  1) 151-C(  9  4  1) 152-C( 10  4  1)
 153-C( 11  4  1) 154-C( 12  4  1) 155-C( 13  4  1) 156-C(  5  5  1)
 157-C(  6  5  1) 158-C(  7  5  1) 159-C(  8  5  1) 160-C(  9  5  1)
 161-C( 10  5  1) 162-C( 11  5  1) 163-C( 12  5  1) 164-C(  6  6  1)
 165-C(  7  6  1) 166-C(  8  6  1) 167-C(  9  6  1) 168-C( 10  6  1)
 169-C( 11  6  1) 170-C( 12  6  1) 171-C(  7  7  1) 172-C(  8  7  1)
 173-C(  9  7  1) 174-C( 10  7  1) 175-C( 11  7  1) 176-C(  8  8  1)
 177-C(  9  8  1) 178-C( 10  8  1) 179-C( 11  8  1) 180-C(  9  9  1)
 181-C( 10  9  1) 182-C( 10 10  1) 183-C(  0  0  2) 184-C(  1  0  2)
 185-C(  2  0  2) 186-C(  3  0  2) 187-C(  4  0  2) 188-C(  5  0  2)
 189-C(  6  0  2) 190-C(  7  0  2) 191-C(  8  0  2) 192-C(  9  0  2)
 193-C( 10  0  2) 194-C( 11  0  2) 195-C( 12  0  2) 196-C( 13  0  2)
 197-C( 14  0  2) 198-C( 15  0  2) 199-C(  1  1  2) 200-C(  2  1  2)
 201-C(  3  1  2) 202-C(  4  1  2) 203-C(  5  1  2) 204-C(  6  1  2)
 205-C(  7  1  2) 206-C(  8  1  2) 207-C(  9  1  2) 208-C( 10  1  2)
 209-C( 11  1  2) 210-C( 12  1  2) 211-C( 13  1  2) 212-C( 14  1  2)
 213-C(  2  2  2) 214-C(  3  2  2) 215-C(  4  2  2) 216-C(  5  2  2)
 217-C(  6  2  2) 218-C(  7  2  2) 219-C(  8  2  2) 220-C(  9  2  2)
 221-C( 10  2  2) 222-C( 11  2  2) 223-C( 12  2  2) 224-C( 13  2  2)
 225-C( 14  2  2) 226-C(  3  3  2) 227-C(  4  3  2) 228-C(  5  3  2)
 229-C(  6  3  2) 230-C(  7  3  2) 231-C(  8  3  2) 232-C(  9  3  2)
 233-C( 10  3  2) 234-C( 11  3  2) 235-C( 12  3  2) 236-C( 13  3  2)
 237-C(  4  4  2) 238-C(  5  4  2) 239-C(  6  4  2) 240-C(  7  4  2)
 241-C(  8  4  2) 242-C(  9  4  2) 243-C( 10  4  2) 244-C( 11  4  2)
 245-C( 12  4  2) 246-C( 13  4  2) 247-C(  5  5  2) 248-C(  6  5  2)
 249-C(  7  5  2) 250-C(  8  5  2) 251-C(  9  5  2) 252-C( 10  5  2)
 253-C( 11  5  2) 254-C( 12  5  2) 255-C(  6  6  2) 256-C(  7  6  2)
 257-C(  8  6  2) 258-C(  9  6  2) 259-C( 10  6  2) 260-C( 11  6  2)
 261-C( 12  6  2) 262-C(  7  7  2) 263-C(  8  7  2) 264-C(  9  7  2)
 265-C( 10  7  2) 266-C( 11  7  2) 267-C(  8  8  2) 268-C(  9  8  2)
 269-C( 10  8  2) 270-C( 11  8  2) 271-C(  9  9  2) 272-C( 10  9  2)
 273-C( 10 10  2) 274-C(  0  0  3) 275-C(  1  0  3) 276-C(  2  0  3)
 277-C(  3  0  3) 278-C(  4  0  3) 279-C(  5  0  3) 280-C(  6  0  3)
 281-C(  7  0  3) 282-C(  8  0  3) 283-C(  9  0  3) 284-C( 10  0  3)
 285-C( 11  0  3) 286-C( 12  0  3) 287-C( 13  0  3) 288-C( 14  0  3)
 289-C( 15  0  3) 290-C(  1  1  3) 291-C(  2  1  3) 292-C(  3  1  3)
 293-C(  4  1  3) 294-C(  5  1  3) 295-C(  6  1  3) 296-C(  7  1  3)
 297-C(  8  1  3) 298-C(  9  1  3) 299-C( 10  1  3) 300-C( 11  1  3)
 301-C( 12  1  3) 302-C( 13  1  3) 303-C( 14  1  3) 304-C(  2  2  3)
 305-C(  3  2  3) 306-C(  4  2  3) 307-C(  5  2  3) 308-C(  6  2  3)
 309-C(  7  2  3) 310-C(  8  2  3) 311-C(  9  2  3) 312-C( 10  2  3)
 313-C( 11  2  3) 314-C( 12  2  3) 315-C( 13  2  3) 316-C( 14  2  3)
 317-C(  3  3  3) 318-C(  4  3  3) 319-C(  5  3  3) 320-C(  6  3  3)
 321-C(  7  3  3) 322-C(  8  3  3) 323-C(  9  3  3) 324-C( 10  3  3)
 325-C( 11  3  3) 326-C( 12  3  3) 327-C( 13  3  3) 328-C(  4  4  3)
 329-C(  5  4  3) 330-C(  6  4  3) 331-C(  7  4  3) 332-C(  8  4  3)
 333-C(  9  4  3) 334-C( 10  4  3) 335-C( 11  4  3) 336-C( 12  4  3)
 337-C( 13  4  3) 338-C(  5  5  3) 339-C(  6  5  3) 340-C(  7  5  3)
 341-C(  8  5  3) 342-C(  9  5  3) 343-C( 10  5  3) 344-C( 11  5  3)
 345-C( 12  5  3) 346-C(  6  6  3) 347-C(  7  6  3) 348-C(  8  6  3)
 349-C(  9  6  3) 350-C( 10  6  3) 351-C( 11  6  3) 352-C( 12  6  3)
 353-C(  7  7  3) 354-C(  8  7  3) 355-C(  9  7  3) 356-C( 10  7  3)
 357-C( 11  7  3) 358-C(  8  8  3) 359-C(  9  8  3) 360-C( 10  8  3)
 361-C( 11  8  3) 362-C(  9  9  3) 363-C( 10  9  3) 364-C( 10 10  3)
 365-C(  0  0  4) 366-C(  1  0  4) 367-C(  2  0  4) 368-C(  3  0  4)
 369-C(  4  0  4) 370-C(  5  0  4) 371-C(  6  0  4) 372-C(  7  0  4)
 373-C(  8  0  4) 374-C(  9  0  4) 375-C( 10  0  4) 376-C( 11  0  4)
 377-C( 12  0  4) 378-C( 13  0  4) 379-C( 14  0  4) 380-C( 15  0  4)
 381-C(  1  1  4) 382-C(  2  1  4) 383-C(  3  1  4) 384-C(  4  1  4)
 385-C(  5  1  4) 386-C(  6  1  4) 387-C(  7  1  4) 388-C(  8  1  4)
 389-C(  9  1  4) 390-C( 10  1  4) 391-C( 11  1  4) 392-C( 12  1  4)
 393-C( 13  1  4) 394-C( 14  1  4) 395-C(  2  2  4) 396-C(  3  2  4)
 397-C(  4  2  4) 398-C(  5  2  4) 399-C(  6  2  4) 400-C(  7  2  4)
 401-C(  8  2  4) 402-C(  9  2  4) 403-C( 10  2  4) 404-C( 11  2  4)
 405-C( 12  2  4) 406-C( 13  2  4) 407-C( 14  2  4) 408-C(  3  3  4)
 409-C(  4  3  4) 410-C(  5  3  4) 411-C(  6  3  4) 412-C(  7  3  4)
 413-C(  8  3  4) 414-C(  9  3  4) 415-C( 10  3  4) 416-C( 11  3  4)
 417-C( 12  3  4) 418-C( 13  3  4) 419-C(  4  4  4) 420-C(  5  4  4)
 421-C(  6  4  4) 422-C(  7  4  4) 423-C(  8  4  4) 424-C(  9  4  4)
 425-C( 10  4  4) 426-C( 11  4  4) 427-C( 12  4  4) 428-C( 13  4  4)
 429-C(  5  5  4) 430-C(  6  5  4) 431-C(  7  5  4) 432-C(  8  5  4)
 433-C(  9  5  4) 434-C( 10  5  4) 435-C( 11  5  4) 436-C( 12  5  4)
 437-C(  6  6  4) 438-C(  7  6  4) 439-C(  8  6  4) 440-C(  9  6  4)
 441-C( 10  6  4) 442-C( 11  6  4) 443-C( 12  6  4) 444-C(  7  7  4)
 445-C(  8  7  4) 446-C(  9  7  4) 447-C( 10  7  4) 448-C( 11  7  4)
 449-C(  8  8  4) 450-C(  9  8  4) 451-C( 10  8  4) 452-C( 11  8  4)
 453-C(  9  9  4) 454-C( 10  9  4) 455-C( 10 10  4) 456-C(  0  0  5)
 457-C(  1  0  5) 458-C(  2  0  5) 459-C(  3  0  5) 460-C(  4  0  5)
 461-C(  5  0  5) 462-C(  6  0  5) 463-C(  7  0  5) 464-C(  8  0  5)
 465-C(  9  0  5) 466-C( 10  0  5) 467-C( 11  0  5) 468-C( 12  0  5)
 469-C( 13  0  5) 470-C( 14  0  5) 471-C( 15  0  5) 472-C(  1  1  5)
 473-C(  2  1  5) 474-C(  3  1  5) 475-C(  4  1  5) 476-C(  5  1  5)
 477-C(  6  1  5) 478-C(  7  1  5) 479-C(  8  1  5) 480-C(  9  1  5)
 481-C( 10  1  5) 482-C( 11  1  5) 483-C( 12  1  5) 484-C( 13  1  5)
 485-C( 14  1  5) 486-C(  2  2  5) 487-C(  3  2  5) 488-C(  4  2  5)
 489-C(  5  2  5) 490-C(  6  2  5) 491-C(  7  2  5) 492-C(  8  2  5)
 493-C(  9  2  5) 494-C( 10  2  5) 495-C( 11  2  5) 496-C( 12  2  5)
 497-C( 13  2  5) 498-C( 14  2  5) 499-C(  3  3  5) 500-C(  4  3  5)
 501-C(  5  3  5) 502-C(  6  3  5) 503-C(  7  3  5) 504-C(  8  3  5)
 505-C(  9  3  5) 506-C( 10  3  5) 507-C( 11  3  5) 508-C( 12  3  5)
 509-C( 13  3  5) 510-C(  4  4  5) 511-C(  5  4  5) 512-C(  6  4  5)
 513-C(  7  4  5) 514-C(  8  4  5) 515-C(  9  4  5) 516-C( 10  4  5)
 517-C( 11  4  5) 518-C( 12  4  5) 519-C( 13  4  5) 520-C(  5  5  5)
 521-C(  6  5  5) 522-C(  7  5  5) 523-C(  8  5  5) 524-C(  9  5  5)
 525-C( 10  5  5) 526-C( 11  5  5) 527-C( 12  5  5) 528-C(  6  6  5)
 529-C(  7  6  5) 530-C(  8  6  5) 531-C(  9  6  5) 532-C( 10  6  5)
 533-C( 11  6  5) 534-C( 12  6  5) 535-C(  7  7  5) 536-C(  8  7  5)
 537-C(  9  7  5) 538-C( 10  7  5) 539-C( 11  7  5) 540-C(  8  8  5)
 541-C(  9  8  5) 542-C( 10  8  5) 543-C( 11  8  5) 544-C(  9  9  5)
 545-C( 10  9  5) 546-C( 10 10  5) 547-C(  0  0  6) 548-C(  1  0  6)
 549-C(  2  0  6) 550-C(  3  0  6) 551-C(  4  0  6) 552-C(  5  0  6)
 553-C(  6  0  6) 554-C(  7  0  6) 555-C(  8  0  6) 556-C(  9  0  6)
 557-C( 10  0  6) 558-C( 11  0  6) 559-C( 12  0  6) 560-C( 13  0  6)
 561-C( 14  0  6) 562-C( 15  0  6) 563-C(  1  1  6) 564-C(  2  1  6)
 565-C(  3  1  6) 566-C(  4  1  6) 567-C(  5  1  6) 568-C(  6  1  6)
 569-C(  7  1  6) 570-C(  8  1  6) 571-C(  9  1  6) 572-C( 10  1  6)
 573-C( 11  1  6) 574-C( 12  1  6) 575-C( 13  1  6) 576-C( 14  1  6)
 577-C(  2  2  6) 578-C(  3  2  6) 579-C(  4  2  6) 580-C(  5  2  6)
 581-C(  6  2  6) 582-C(  7  2  6) 583-C(  8  2  6) 584-C(  9  2  6)
 585-C( 10  2  6) 586-C( 11  2  6) 587-C( 12  2  6) 588-C( 13  2  6)
 589-C( 14  2  6) 590-C(  3  3  6) 591-C(  4  3  6) 592-C(  5  3  6)
 593-C(  6  3  6) 594-C(  7  3  6) 595-C(  8  3  6) 596-C(  9  3  6)
 597-C( 10  3  6) 598-C( 11  3  6) 599-C( 12  3  6) 600-C( 13  3  6)
 601-C(  4  4  6) 602-C(  5  4  6) 603-C(  6  4  6) 604-C(  7  4  6)
 605-C(  8  4  6) 606-C(  9  4  6) 607-C( 10  4  6) 608-C( 11  4  6)
 609-C( 12  4  6) 610-C( 13  4  6) 611-C(  5  5  6) 612-C(  6  5  6)
 613-C(  7  5  6) 614-C(  8  5  6) 615-C(  9  5  6) 616-C( 10  5  6)
 617-C( 11  5  6) 618-C( 12  5  6) 619-C(  6  6  6) 620-C(  7  6  6)
 621-C(  8  6  6) 622-C(  9  6  6) 623-C( 10  6  6) 624-C( 11  6  6)
 625-C( 12  6  6) 626-C(  7  7  6) 627-C(  8  7  6) 628-C(  9  7  6)
 629-C( 10  7  6) 630-C( 11  7  6) 631-C(  8  8  6) 632-C(  9  8  6)
 633-C( 10  8  6) 634-C( 11  8  6) 635-C(  9  9  6) 636-C( 10  9  6)
 637-C( 10 10  6) 638-C(  0  0  7) 639-C(  1  0  7) 640-C(  2  0  7)
 641-C(  3  0  7) 642-C(  4  0  7) 643-C(  5  0  7) 644-C(  6  0  7)
 645-C(  7  0  7) 646-C(  8  0  7) 647-C(  9  0  7) 648-C( 10  0  7)
 649-C( 11  0  7) 650-C( 12  0  7) 651-C( 13  0  7) 652-C( 14  0  7)
 653-C( 15  0  7) 654-C(  1  1  7) 655-C(  2  1  7) 656-C(  3  1  7)
 657-C(  4  1  7) 658-C(  5  1  7) 659-C(  6  1  7) 660-C(  7  1  7)
 661-C(  8  1  7) 662-C(  9  1  7) 663-C( 10  1  7) 664-C( 11  1  7)
 665-C( 12  1  7) 666-C( 13  1  7) 667-C( 14  1  7) 668-C(  2  2  7)
 669-C(  3  2  7) 670-C(  4  2  7) 671-C(  5  2  7) 672-C(  6  2  7)
 673-C(  7  2  7) 674-C(  8  2  7) 675-C(  9  2  7) 676-C( 10  2  7)
 677-C( 11  2  7) 678-C( 12  2  7) 679-C( 13  2  7) 680-C( 14  2  7)
 681-C(  3  3  7) 682-C(  4  3  7) 683-C(  5  3  7) 684-C(  6  3  7)
 685-C(  7  3  7) 686-C(  8  3  7) 687-C(  9  3  7) 688-C( 10  3  7)
 689-C( 11  3  7) 690-C( 12  3  7) 691-C( 13  3  7) 692-C(  4  4  7)
 693-C(  5  4  7) 694-C(  6  4  7) 695-C(  7  4  7) 696-C(  8  4  7)
 697-C(  9  4  7) 698-C( 10  4  7) 699-C( 11  4  7) 700-C( 12  4  7)
 701-C( 13  4  7) 702-C(  5  5  7) 703-C(  6  5  7) 704-C(  7  5  7)
 705-C(  8  5  7) 706-C(  9  5  7) 707-C( 10  5  7) 708-C( 11  5  7)
 709-C( 12  5  7) 710-C(  6  6  7) 711-C(  7  6  7) 712-C(  8  6  7)
 713-C(  9  6  7) 714-C( 10  6  7) 715-C( 11  6  7) 716-C( 12  6  7)
 717-C(  7  7  7) 718-C(  8  7  7) 719-C(  9  7  7) 720-C( 10  7  7)
 721-C( 11  7  7) 722-C(  8  8  7) 723-C(  9  8  7) 724-C( 10  8  7)
 725-C( 11  8  7) 726-C(  9  9  7) 727-C( 10  9  7) 728-C( 10 10  7)
 729-C(  0  0  8) 730-C(  1  0  8) 731-C(  2  0  8) 732-C(  3  0  8)
 733-C(  4  0  8) 734-C(  5  0  8) 735-C(  6  0  8) 736-C(  7  0  8)
 737-C(  8  0  8) 738-C(  9  0  8) 739-C( 10  0  8) 740-C( 11  0  8)
 741-C( 12  0  8) 742-C( 13  0  8) 743-C( 14  0  8) 744-C( 15  0  8)
 745-C(  1  1  8) 746-C(  2  1  8) 747-C(  3  1  8) 748-C(  4  1  8)
 749-C(  5  1  8) 750-C(  6  1  8) 751-C(  7  1  8) 752-C(  8  1  8)
 753-C(  9  1  8) 754-C( 10  1  8) 755-C( 11  1  8) 756-C( 12  1  8)
 757-C( 13  1  8) 758-C( 14  1  8) 759-C(  2  2  8) 760-C(  3  2  8)
 761-C(  4  2  8) 762-C(  5  2  8) 763-C(  6  2  8) 764-C(  7  2  8)
 765-C(  8  2  8) 766-C(  9  2  8) 767-C( 10  2  8) 768-C( 11  2  8)
 769-C( 12  2  8) 770-C( 13  2  8) 771-C( 14  2  8) 772-C(  3  3  8)
 773-C(  4  3  8) 774-C(  5  3  8) 775-C(  6  3  8) 776-C(  7  3  8)
 777-C(  8  3  8) 778-C(  9  3  8) 779-C( 10  3  8) 780-C( 11  3  8)
 781-C( 12  3  8) 782-C( 13  3  8) 783-C(  4  4  8) 784-C(  5  4  8)
 785-C(  6  4  8) 786-C(  7  4  8) 787-C(  8  4  8) 788-C(  9  4  8)
 789-C( 10  4  8) 790-C( 11  4  8) 791-C( 12  4  8) 792-C( 13  4  8)
 793-C(  5  5  8) 794-C(  6  5  8) 795-C(  7  5  8) 796-C(  8  5  8)
 797-C(  9  5  8) 798-C( 10  5  8) 799-C( 11  5  8) 800-C( 12  5  8)
 801-C(  6  6  8) 802-C(  7  6  8) 803-C(  8  6  8) 804-C(  9  6  8)
 805-C( 10  6  8) 806-C( 11  6  8) 807-C( 12  6  8) 808-C(  7  7  8)
 809-C(  8  7  8) 810-C(  9  7  8) 811-C( 10  7  8) 812-C( 11  7  8)
 813-C(  8  8  8) 814-C(  9  8  8) 815-C( 10  8  8) 816-C( 11  8  8)
 817-C(  9  9  8) 818-C( 10  9  8) 819-C( 10 10  8) 820-C(  0  0  9)
 821-C(  1  0  9) 822-C(  2  0  9) 823-C(  3  0  9) 824-C(  4  0  9)
 825-C(  5  0  9) 826-C(  6  0  9) 827-C(  7  0  9) 828-C(  8  0  9)
 829-C(  9  0  9) 830-C( 10  0  9) 831-C( 11  0  9) 832-C( 12  0  9)
 833-C( 13  0  9) 834-C( 14  0  9) 835-C( 15  0  9) 836-C(  1  1  9)
 837-C(  2  1  9) 838-C(  3  1  9) 839-C(  4  1  9) 840-C(  5  1  9)
 841-C(  6  1  9) 842-C(  7  1  9) 843-C(  8  1  9) 844-C(  9  1  9)
 845-C( 10  1  9) 846-C( 11  1  9) 847-C( 12  1  9) 848-C( 13  1  9)
 849-C( 14  1  9) 850-C(  2  2  9) 851-C(  3  2  9) 852-C(  4  2  9)
 853-C(  5  2  9) 854-C(  6  2  9) 855-C(  7  2  9) 856-C(  8  2  9)
 857-C(  9  2  9) 858-C( 10  2  9) 859-C( 11  2  9) 860-C( 12  2  9)
 861-C( 13  2  9) 862-C( 14  2  9) 863-C(  3  3  9) 864-C(  4  3  9)
 865-C(  5  3  9) 866-C(  6  3  9) 867-C(  7  3  9) 868-C(  8  3  9)
 869-C(  9  3  9) 870-C( 10  3  9) 871-C( 11  3  9) 872-C( 12  3  9)
 873-C( 13  3  9) 874-C(  4  4  9) 875-C(  5  4  9) 876-C(  6  4  9)
 877-C(  7  4  9) 878-C(  8  4  9) 879-C(  9  4  9) 880-C( 10  4  9)
 881-C( 11  4  9) 882-C( 12  4  9) 883-C( 13  4  9) 884-C(  5  5  9)
 885-C(  6  5  9) 886-C(  7  5  9) 887-C(  8  5  9) 888-C(  9  5  9)
 889-C( 10  5  9) 890-C( 11  5  9) 891-C( 12  5  9) 892-C(  6  6  9)
 893-C(  7  6  9) 894-C(  8  6  9) 895-C(  9  6  9) 896-C( 10  6  9)
 897-C( 11  6  9) 898-C( 12  6  9) 899-C(  7  7  9) 900-C(  8  7  9)
 901-C(  9  7  9) 902-C( 10  7  9) 903-C( 11  7  9) 904-C(  8  8  9)
 905-C(  9  8  9) 906-C( 10  8  9) 907-C( 11  8  9) 908-C(  9  9  9)
 909-C( 10  9  9) 910-C( 10 10  9) 911-C(  0  0 10) 912-C(  1  0 10)
 913-C(  2  0 10) 914-C(  3  0 10) 915-C(  4  0 10) 916-C(  5  0 10)
 917-C(  6  0 10) 918-C(  7  0 10) 919-C(  8  0 10) 920-C(  9  0 10)
 921-C( 10  0 10) 922-C( 11  0 10) 923-C( 12  0 10) 924-C( 13  0 10)
 925-C( 14  0 10) 926-C( 15  0 10) 927-C(  1  1 10) 928-C(  2  1 10)
 929-C(  3  1 10) 930-C(  4  1 10) 931-C(  5  1 10) 932-C(  6  1 10)
 933-C(  7  1 10) 934-C(  8  1 10) 935-C(  9  1 10) 936-C( 10  1 10)
 937-C( 11  1 10) 938-C( 12  1 10) 939-C( 13  1 10) 940-C( 14  1 10)
 941-C(  2  2 10) 942-C(  3  2 10) 943-C(  4  2 10) 944-C(  5  2 10)
 945-C(  6  2 10) 946-C(  7  2 10) 947-C(  8  2 10) 948-C(  9  2 10)
 949-C( 10  2 10) 950-C( 11  2 10) 951-C( 12  2 10) 952-C( 13  2 10)
 953-C( 14  2 10) 954-C(  3  3 10) 955-C(  4  3 10) 956-C(  5  3 10)
 957-C(  6  3 10) 958-C(  7  3 10) 959-C(  8  3 10) 960-C(  9  3 10)
 961-C( 10  3 10) 962-C( 11  3 10) 963-C( 12  3 10) 964-C( 13  3 10)
 965-C(  4  4 10) 966-C(  5  4 10) 967-C(  6  4 10) 968-C(  7  4 10)
 969-C(  8  4 10) 970-C(  9  4 10) 971-C( 10  4 10) 972-C( 11  4 10)
 973-C( 12  4 10) 974-C( 13  4 10) 975-C(  5  5 10) 976-C(  6  5 10)
 977-C(  7  5 10) 978-C(  8  5 10) 979-C(  9  5 10) 980-C( 10  5 10)
 981-C( 11  5 10) 982-C( 12  5 10) 983-C(  6  6 10) 984-C(  7  6 10)
 985-C(  8  6 10) 986-C(  9  6 10) 987-C( 10  6 10) 988-C( 11  6 10)
 989-C( 12  6 10) 990-C(  7  7 10) 991-C(  8  7 10) 992-C(  9  7 10)
 993-C( 10  7 10) 994-C( 11  7 10) 995-C(  8  8 10) 996-C(  9  8 10)
 997-C( 10  8 10) 998-C( 11  8 10) 999-C(  9  9 10)1000-C( 10  9 10)
1001-C( 10 10 10)1002-C(  0  0 11)1003-C(  1  0 11)1004-C(  2  0 11)
1005-C(  3  0 11)1006-C(  4  0 11)1007-C(  5  0 11)1008-C(  6  0 11)
1009-C(  7  0 11)1010-C(  8  0 11)1011-C(  9  0 11)1012-C( 10  0 11)
1013-C( 11  0 11)1014-C( 12  0 11)1015-C( 13  0 11)1016-C( 14  0 11)
1017-C( 15  0 11)1018-C(  1  1 11)1019-C(  2  1 11)1020-C(  3  1 11)
1021-C(  4  1 11)1022-C(  5  1 11)1023-C(  6  1 11)1024-C(  7  1 11)
1025-C(  8  1 11)1026-C(  9  1 11)1027-C( 10  1 11)1028-C( 11  1 11)
1029-C( 12  1 11)1030-C( 13  1 11)1031-C( 14  1 11)1032-C(  2  2 11)
1033-C(  3  2 11)1034-C(  4  2 11)1035-C(  5  2 11)1036-C(  6  2 11)
1037-C(  7  2 11)1038-C(  8  2 11)1039-C(  9  2 11)1040-C( 10  2 11)
1041-C( 11  2 11)1042-C( 12  2 11)1043-C( 13  2 11)1044-C( 14  2 11)
1045-C(  3  3 11)1046-C(  4  3 11)1047-C(  5  3 11)1048-C(  6  3 11)
1049-C(  7  3 11)1050-C(  8  3 11)1051-C(  9  3 11)1052-C( 10  3 11)
1053-C( 11  3 11)1054-C( 12  3 11)1055-C( 13  3 11)1056-C(  4  4 11)
1057-C(  5  4 11)1058-C(  6  4 11)1059-C(  7  4 11)1060-C(  8  4 11)
1061-C(  9  4 11)1062-C( 10  4 11)1063-C( 11  4 11)1064-C( 12  4 11)
1065-C( 13  4 11)1066-C(  5  5 11)1067-C(  6  5 11)1068-C(  7  5 11)
1069-C(  8  5 11)1070-C(  9  5 11)1071-C( 10  5 11)1072-C( 11  5 11)
1073-C( 12  5 11)1074-C(  6  6 11)1075-C(  7  6 11)1076-C(  8  6 11)
1077-C(  9  6 11)1078-C( 10  6 11)1079-C( 11  6 11)1080-C( 12  6 11)
1081-C(  7  7 11)1082-C(  8  7 11)1083-C(  9  7 11)1084-C( 10  7 11)
1085-C( 11  7 11)1086-C(  8  8 11)1087-C(  9  8 11)1088-C( 10  8 11)
1089-C( 11  8 11)1090-C(  9  9 11)1091-C( 10  9 11)1092-C( 10 10 11)
1093-C(  0  0 12)1094-C(  1  0 12)1095-C(  2  0 12)1096-C(  3  0 12)
1097-C(  4  0 12)1098-C(  5  0 12)1099-C(  6  0 12)1100-C(  7  0 12)
1101-C(  8  0 12)1102-C(  9  0 12)1103-C( 10  0 12)1104-C( 11  0 12)
1105-C( 12  0 12)1106-C( 13  0 12)1107-C( 14  0 12)1108-C( 15  0 12)
1109-C(  1  1 12)1110-C(  2  1 12)1111-C(  3  1 12)1112-C(  4  1 12)
1113-C(  5  1 12)1114-C(  6  1 12)1115-C(  7  1 12)1116-C(  8  1 12)
1117-C(  9  1 12)1118-C( 10  1 12)1119-C( 11  1 12)1120-C( 12  1 12)
1121-C( 13  1 12)1122-C( 14  1 12)1123-C(  2  2 12)1124-C(  3  2 12)
1125-C(  4  2 12)1126-C(  5  2 12)1127-C(  6  2 12)1128-C(  7  2 12)
1129-C(  8  2 12)1130-C(  9  2 12)1131-C( 10  2 12)1132-C( 11  2 12)
1133-C( 12  2 12)1134-C( 13  2 12)1135-C( 14  2 12)1136-C(  3  3 12)
1137-C(  4  3 12)1138-C(  5  3 12)1139-C(  6  3 12)1140-C(  7  3 12)
1141-C(  8  3 12)1142-C(  9  3 12)1143-C( 10  3 12)1144-C( 11  3 12)
1145-C( 12  3 12)1146-C( 13  3 12)1147-C(  4  4 12)1148-C(  5  4 12)
1149-C(  6  4 12)1150-C(  7  4 12)1151-C(  8  4 12)1152-C(  9  4 12)
1153-C( 10  4 12)1154-C( 11  4 12)1155-C( 12  4 12)1156-C( 13  4 12)
1157-C(  5  5 12)1158-C(  6  5 12)1159-C(  7  5 12)1160-C(  8  5 12)
1161-C(  9  5 12)1162-C( 10  5 12)1163-C( 11  5 12)1164-C( 12  5 12)
1165-C(  6  6 12)1166-C(  7  6 12)1167-C(  8  6 12)1168-C(  9  6 12)
1169-C( 10  6 12)1170-C( 11  6 12)1171-C( 12  6 12)1172-C(  7  7 12)
1173-C(  8  7 12)1174-C(  9  7 12)1175-C( 10  7 12)1176-C( 11  7 12)
1177-C(  8  8 12)1178-C(  9  8 12)1179-C( 10  8 12)1180-C( 11  8 12)
1181-C(  9  9 12)1182-C( 10  9 12)1183-C( 10 10 12)1184-C(  0  0 13)
1185-C(  1  0 13)1186-C(  2  0 13)1187-C(  3  0 13)1188-C(  4  0 13)
1189-C(  5  0 13)1190-C(  6  0 13)1191-C(  7  0 13)1192-C(  8  0 13)
1193-C(  9  0 13)1194-C( 10  0 13)1195-C( 11  0 13)1196-C( 12  0 13)
1197-C( 13  0 13)1198-C( 14  0 13)1199-C( 15  0 13)1200-C(  1  1 13)
1201-C(  2  1 13)1202-C(  3  1 13)1203-C(  4  1 13)1204-C(  5  1 13)
1205-C(  6  1 13)1206-C(  7  1 13)1207-C(  8  1 13)1208-C(  9  1 13)
1209-C( 10  1 13)1210-C( 11  1 13)1211-C( 12  1 13)1212-C( 13  1 13)
1213-C( 14  1 13)1214-C(  2  2 13)1215-C(  3  2 13)1216-C(  4  2 13)
1217-C(  5  2 13)1218-C(  6  2 13)1219-C(  7  2 13)1220-C(  8  2 13)
1221-C(  9  2 13)1222-C( 10  2 13)1223-C( 11  2 13)1224-C( 12  2 13)
1225-C( 13  2 13)1226-C( 14  2 13)1227-C(  3  3 13)1228-C(  4  3 13)
1229-C(  5  3 13)1230-C(  6  3 13)1231-C(  7  3 13)1232-C(  8  3 13)
1233-C(  9  3 13)1234-C( 10  3 13)1235-C( 11  3 13)1236-C( 12  3 13)
1237-C( 13  3 13)1238-C(  4  4 13)1239-C(  5  4 13)1240-C(  6  4 13)
1241-C(  7  4 13)1242-C(  8  4 13)1243-C(  9  4 13)1244-C( 10  4 13)
1245-C( 11  4 13)1246-C( 12  4 13)1247-C( 13  4 13)1248-C(  5  5 13)
1249-C(  6  5 13)1250-C(  7  5 13)1251-C(  8  5 13)1252-C(  9  5 13)
1253-C( 10  5 13)1254-C( 11  5 13)1255-C( 12  5 13)1256-C(  6  6 13)
1257-C(  7  6 13)1258-C(  8  6 13)1259-C(  9  6 13)1260-C( 10  6 13)
1261-C( 11  6 13)1262-C( 12  6 13)1263-C(  7  7 13)1264-C(  8  7 13)
1265-C(  9  7 13)1266-C( 10  7 13)1267-C( 11  7 13)1268-C(  8  8 13)
1269-C(  9  8 13)1270-C( 10  8 13)1271-C( 11  8 13)1272-C(  9  9 13)
1273-C( 10  9 13)1274-C( 10 10 13)1275-C(  0  0 14)1276-C(  1  0 14)
1277-C(  2  0 14)1278-C(  3  0 14)1279-C(  4  0 14)1280-C(  5  0 14)
1281-C(  6  0 14)1282-C(  7  0 14)1283-C(  8  0 14)1284-C(  9  0 14)
1285-C( 10  0 14)1286-C( 11  0 14)1287-C( 12  0 14)1288-C( 13  0 14)
1289-C( 14  0 14)1290-C( 15  0 14)1291-C(  1  1 14)1292-C(  2  1 14)
1293-C(  3  1 14)1294-C(  4  1 14)1295-C(  5  1 14)1296-C(  6  1 14)
1297-C(  7  1 14)1298-C(  8  1 14)1299-C(  9  1 14)1300-C( 10  1 14)
1301-C( 11  1 14)1302-C( 12  1 14)1303-C( 13  1 14)1304-C( 14  1 14)
1305-C(  2  2 14)1306-C(  3  2 14)1307-C(  4  2 14)1308-C(  5  2 14)
1309-C(  6  2 14)1310-C(  7  2 14)1311-C(  8  2 14)1312-C(  9  2 14)
1313-C( 10  2 14)1314-C( 11  2 14)1315-C( 12  2 14)1316-C( 13  2 14)
1317-C( 14  2 14)1318-C(  3  3 14)1319-C(  4  3 14)1320-C(  5  3 14)
1321-C(  6  3 14)1322-C(  7  3 14)1323-C(  8  3 14)1324-C(  9  3 14)
1325-C( 10  3 14)1326-C( 11  3 14)1327-C( 12  3 14)1328-C( 13  3 14)
1329-C(  4  4 14)1330-C(  5  4 14)1331-C(  6  4 14)1332-C(  7  4 14)
1333-C(  8  4 14)1334-C(  9  4 14)1335-C( 10  4 14)1336-C( 11  4 14)
1337-C( 12  4 14)1338-C( 13  4 14)1339-C(  5  5 14)1340-C(  6  5 14)
1341-C(  7  5 14)1342-C(  8  5 14)1343-C(  9  5 14)1344-C( 10  5 14)
1345-C( 11  5 14)1346-C( 12  5 14)1347-C(  6  6 14)1348-C(  7  6 14)
1349-C(  8  6 14)1350-C(  9  6 14)1351-C( 10  6 14)1352-C( 11  6 14)
1353-C( 12  6 14)1354-C(  7  7 14)1355-C(  8  7 14)1356-C(  9  7 14)
1357-C( 10  7 14)1358-C( 11  7 14)1359-C(  8  8 14)1360-C(  9  8 14)
1361-C( 10  8 14)1362-C( 11  8 14)1363-C(  9  9 14)1364-C( 10  9 14)
1365-C( 10 10 14)1366-R(  0  0 15)1367-C(  1  0 15)1368-C(  2  0 15)
1369-C(  3  0 15)1370-C(  4  0 15)1371-C(  5  0 15)1372-C(  6  0 15)
1373-C(  7  0 15)1374-C(  8  0 15)1375-C(  9  0 15)1376-C( 10  0 15)
1377-C( 11  0 15)1378-C( 12  0 15)1379-C( 13  0 15)1380-C( 14  0 15)
1381-R( 15  0 15)1382-C(  1  1 15)1383-C(  2  1 15)1384-C(  3  1 15)
1385-C(  4  1 15)1386-C(  5  1 15)1387-C(  6  1 15)1388-C(  7  1 15)
1389-C(  8  1 15)1390-C(  9  1 15)1391-C( 10  1 15)1392-C( 11  1 15)
1393-C( 12  1 15)1394-C( 13  1 15)1395-C( 14  1 15)1396-C(  2  2 15)
1397-C(  3  2 15)1398-C(  4  2 15)1399-C(  5  2 15)1400-C(  6  2 15)
1401-C(  7  2 15)1402-C(  8  2 15)1403-C(  9  2 15)1404-C( 10  2 15)
1405-C( 11  2 15)1406-C( 12  2 15)1407-C( 13  2 15)1408-C( 14  2 15)
1409-C(  3  3 15)1410-C(  4  3 15)1411-C(  5  3 15)1412-C(  6  3 15)
1413-C(  7  3 15)1414-C(  8  3 15)1415-C(  9  3 15)1416-C( 10  3 15)
1417-C( 11  3 15)1418-C( 12  3 15)1419-C( 13  3 15)1420-C(  4  4 15)
1421-C(  5  4 15)1422-C(  6  4 15)1423-C(  7  4 15)1424-C(  8  4 15)
1425-C(  9  4 15)1426-C( 10  4 15)1427-C( 11  4 15)1428-C( 12  4 15)
1429-C( 13  4 15)1430-C(  5  5 15)1431-C(  6  5 15)1432-C(  7  5 15)
1433-C(  8  5 15)1434-C(  9  5 15)1435-C( 10  5 15)1436-C( 11  5 15)
1437-C( 12  5 15)1438-C(  6  6 15)1439-C(  7  6 15)1440-C(  8  6 15)
1441-C(  9  6 15)1442-C( 10  6 15)1443-C( 11  6 15)1444-C( 12  6 15)
1445-C(  7  7 15)1446-C(  8  7 15)1447-C(  9  7 15)1448-C( 10  7 15)
1449-C( 11  7 15)1450-C(  8  8 15)1451-C(  9  8 15)1452-C( 10  8 15)
1453-C( 11  8 15)1454-C(  9  9 15)1455-C( 10  9 15)1456-C( 10 10 15)

 DIRECT LATTICE VECTORS COMPON. (A.U.)     RECIP. LATTICE VECTORS COMPON. (A.U.) 
        X            Y            Z              X            Y            Z
    5.5436840   -3.2006474    0.0000000      1.1333953    0.0000000    0.0000000
    0.0000000    6.4012949    0.0000000      0.5666976    0.9815491   -0.0000000
    0.0000000    0.0000000    6.6049201     -0.0000000    0.0000000    0.9512886

 DISK SPACE FOR EIGENVECTORS (FTN 10)     5629888 REALS

 SYMMETRY ADAPTION OF THE BLOCH FUNCTIONS ENABLED
 TTTTTTTTTTTTTTTTTTTTTTTTTTTTTT gordsh1     TELAPSE        0.35 TCPU        0.13

 MATRIX SIZE: P(G)   47624, F(G)   24447, P(G) IRR    4749, F(G) IRR    4749
 MAX G-VECTOR INDEX FOR 1- AND 2-ELECTRON INTEGRALS 205

 TTTTTTTTTTTTTTTTTTTTTTTTTTTTTT INPUT       TELAPSE        0.35 TCPU        0.13

 NEIGHBORS OF THE NON-EQUIVALENT ATOMS

 N = NUMBER OF NEIGHBORS AT DISTANCE R
    ATOM  N     R/ANG      R/AU   NEIGHBORS (ATOM LABELS AND CELL INDICES)
   1 TA   6     2.6228     4.9563    2 AS   0 0 0    2 AS   1 0 0    2 AS   0-1 0
                                     2 AS   0 0-1    2 AS   1 0-1    2 AS   0-1-1
   1 TA   6     3.3874     6.4013    1 TA  -1-1 0    1 TA   1 1 0    1 TA  -1 0 0
                                     1 TA   1 0 0    1 TA   0-1 0    1 TA   0 1 0
   1 TA   2     3.4952     6.6049    1 TA   0 0-1    1 TA   0 0 1
   1 TA   6     4.2841     8.0958    2 AS   1 1 0    2 AS  -1-1 0    2 AS  -1-1-1
                                     2 AS   1 1-1    2 AS   1-1 0    2 AS   1-1-1
   1 TA  12     4.8673     9.1979    1 TA  -1-1-1    1 TA   1 1 1    1 TA  -1-1 1
                                     1 TA   1 1-1    1 TA  -1 0-1    1 TA   1 0 1
                                     1 TA  -1 0 1    1 TA   1 0-1    1 TA   0-1-1
                                     1 TA   0 1 1    1 TA   0-1 1    1 TA   0 1-1
   1 TA  12     5.4615    10.3208    2 AS  -1 0 0    2 AS   0 1 0    2 AS  -1 0-1
                                     2 AS   0 1-1    2 AS   2 1 0    2 AS  -1-2 0
                                     2 AS   2 0 0    2 AS   0-2 0    2 AS   2 1-1
                                     2 AS  -1-2-1    2 AS   2 0-1    2 AS   0-2-1

   2 AS   6     2.6228     4.9563    1 TA   0 0 0    1 TA  -1 0 0    1 TA   0 1 0
                                     1 TA   0 0 1    1 TA  -1 0 1    1 TA   0 1 1
   2 AS   6     3.3874     6.4013    2 AS  -1-1 0    2 AS   1 1 0    2 AS  -1 0 0
                                     2 AS   1 0 0    2 AS   0-1 0    2 AS   0 1 0
   2 AS   2     3.4952     6.6049    2 AS   0 0-1    2 AS   0 0 1
   2 AS   6     4.2841     8.0958    1 TA  -1-1 0    1 TA   1 1 0    1 TA   1 1 1
                                     1 TA  -1-1 1    1 TA  -1 1 0    1 TA  -1 1 1
   2 AS  12     4.8673     9.1979    2 AS  -1-1-1    2 AS   1 1 1    2 AS  -1-1 1
                                     2 AS   1 1-1    2 AS  -1 0-1    2 AS   1 0 1
                                     2 AS  -1 0 1    2 AS   1 0-1    2 AS   0-1-1
                                     2 AS   0 1 1    2 AS   0-1 1    2 AS   0 1-1
   2 AS  12     5.4615    10.3208    1 TA   1 0 0    1 TA   0-1 0    1 TA   1 0 1
                                     1 TA   0-1 1    1 TA  -2-1 0    1 TA   1 2 0
                                     1 TA  -2 0 0    1 TA   0 2 0    1 TA  -2-1 1
                                     1 TA   1 2 1    1 TA  -2 0 1    1 TA   0 2 1


 THERE ARE NO SYMMETRY ALLOWED DIRECTIONS
 TTTTTTTTTTTTTTTTTTTTTTTTTTTTTT SYMM        TELAPSE        0.37 TCPU        0.15
 TTTTTTTTTTTTTTTTTTTTTTTTTTTTTT INT_SCREEN  TELAPSE        0.37 TCPU        0.15

 ************************************************************************
 ************************************************************************
 EOS OPTION, W.F. PERGER, B. CIVALLERI, R. DOVESI, C.M. ZICOVICH, SEPTEMBER 2010
             A. ERBA 2013 
 CONVERGENCE CRITERION FOR ENERGY, TOLDEE =   1.0000E-08
 CONVERGENCE CRITERION FOR RMS GRADIENT, TOLDEG =   3.0000E-04
 CONVERGENCE CRITERION FOR RMS DISPLACEMENT, TOLDEX =  6.2000E-04
 NUMBER OF POINTS (TOTAL) DETERMINING E-V CURVE=    13
 RANGE OF VOLUMES, IN %:     87.0000    102.0000
 ************************************************************************
 ************************************************************************

 READING DATA FROM RESTART UNIT EOSINFO.DAT

 TTTTTTTTTTTTTTTTTTTTTTTTTTTTTT gordsh1     TELAPSE        0.37 TCPU        0.15

 MATRIX SIZE: P(G)   47624, F(G)   24447, P(G) IRR    4749, F(G) IRR    4749
 MAX G-VECTOR INDEX FOR 1- AND 2-ELECTRON INTEGRALS 205

 TTTTTTTTTTTTTTTTTTTTTTTTTTTTTT INPUT       TELAPSE        0.37 TCPU        0.15

 NEIGHBORS OF THE NON-EQUIVALENT ATOMS

 N = NUMBER OF NEIGHBORS AT DISTANCE R
    ATOM  N     R/ANG      R/AU   NEIGHBORS (ATOM LABELS AND CELL INDICES)
   1 TA   6     2.6228     4.9563    2 AS   0 0 0    2 AS   1 0 0    2 AS   0-1 0
                                     2 AS   0 0-1    2 AS   1 0-1    2 AS   0-1-1
   1 TA   6     3.3874     6.4013    1 TA  -1-1 0    1 TA   1 1 0    1 TA  -1 0 0
                                     1 TA   1 0 0    1 TA   0-1 0    1 TA   0 1 0
   1 TA   2     3.4952     6.6049    1 TA   0 0-1    1 TA   0 0 1
   1 TA   6     4.2841     8.0958    2 AS   1 1 0    2 AS  -1-1 0    2 AS  -1-1-1
                                     2 AS   1 1-1    2 AS   1-1 0    2 AS   1-1-1
   1 TA  12     4.8673     9.1979    1 TA  -1-1-1    1 TA   1 1 1    1 TA  -1-1 1
                                     1 TA   1 1-1    1 TA  -1 0-1    1 TA   1 0 1
                                     1 TA  -1 0 1    1 TA   1 0-1    1 TA   0-1-1
                                     1 TA   0 1 1    1 TA   0-1 1    1 TA   0 1-1
   1 TA  12     5.4615    10.3208    2 AS  -1 0 0    2 AS   0 1 0    2 AS  -1 0-1
                                     2 AS   0 1-1    2 AS   2 1 0    2 AS  -1-2 0
                                     2 AS   2 0 0    2 AS   0-2 0    2 AS   2 1-1
                                     2 AS  -1-2-1    2 AS   2 0-1    2 AS   0-2-1

   2 AS   6     2.6228     4.9563    1 TA   0 0 0    1 TA  -1 0 0    1 TA   0 1 0
                                     1 TA   0 0 1    1 TA  -1 0 1    1 TA   0 1 1
   2 AS   6     3.3874     6.4013    2 AS  -1-1 0    2 AS   1 1 0    2 AS  -1 0 0
                                     2 AS   1 0 0    2 AS   0-1 0    2 AS   0 1 0
   2 AS   2     3.4952     6.6049    2 AS   0 0-1    2 AS   0 0 1
   2 AS   6     4.2841     8.0958    1 TA  -1-1 0    1 TA   1 1 0    1 TA   1 1 1
                                     1 TA  -1-1 1    1 TA  -1 1 0    1 TA  -1 1 1
   2 AS  12     4.8673     9.1979    2 AS  -1-1-1    2 AS   1 1 1    2 AS  -1-1 1
                                     2 AS   1 1-1    2 AS  -1 0-1    2 AS   1 0 1
                                     2 AS  -1 0 1    2 AS   1 0-1    2 AS   0-1-1
                                     2 AS   0 1 1    2 AS   0-1 1    2 AS   0 1-1
   2 AS  12     5.4615    10.3208    1 TA   1 0 0    1 TA   0-1 0    1 TA   1 0 1
                                     1 TA   0-1 1    1 TA  -2-1 0    1 TA   1 2 0
                                     1 TA  -2 0 0    1 TA   0 2 0    1 TA  -2-1 1
                                     1 TA   1 2 1    1 TA  -2 0 1    1 TA   0 2 1


 SYMMETRY ALLOWED ELASTIC DISTORTION 1
  0.5773503  0.0000000  0.0000000
  0.0000000  0.5773503  0.0000000
  0.0000000  0.0000000  0.5773503

 SYMMETRY ALLOWED ELASTIC DISTORTION 2
  0.4082483  0.0000000  0.0000000
  0.0000000  0.4082483  0.0000000
  0.0000000  0.0000000 -0.8164966

 ACTIVE SYMMETRY ALLOWED ELASTIC DISTORTION 1
  0.4082483  0.0000000  0.0000000
  0.0000000  0.4082483  0.0000000
  0.0000000  0.0000000 -0.8164966

 THERE ARE NO SYMMETRY ALLOWED DIRECTIONS
 WARNING **** INT_SCREEN **** CELL PARAMETERS OPTIMIZATION ONLY
 TTTTTTTTTTTTTTTTTTTTTTTTTTTTTT SYMM        TELAPSE        0.39 TCPU        0.16
 TTTTTTTTTTTTTTTTTTTTTTTTTTTTTT INT_SCREEN  TELAPSE        0.39 TCPU        0.16

 *******************************************************************************
 * CELL DEFORMATION
 *******************************************************************************

    ELASTIC STRAIN MATRIX (ADIMENSIONAL)

    1   -0.0453597291   -0.0000000000   -0.0000000000
    2   -0.0000000000   -0.0453597291   -0.0000000000
    3   -0.0000000000   -0.0000000000   -0.0453597291

 LATTICE PARAMETERS (ANGSTROMS AND DEGREES) OF
 (1) ORIGINAL PRIMITIVE CELL
 (2) ORIGINAL CRYSTALLOGRAPHIC CELL
 (3) DEFORMED PRIMITIVE CELL
 (4) DEFORMED CRYSTALLOGRAPHIC CELL

            A           B           C        ALPHA       BETA        GAMMA         VOL
 (2)    3.387419    3.387419    3.495173   90.000000   90.000000  120.000000   34.732597
 (4)    3.233767    3.233767    3.336633   90.000000   90.000000  120.000000   30.217360

 * CELL DEFORMATION COMPLETE - NO. OF SYMMOPS  12

 VOLUME FOUND IN RESTART FILE

 *******************************************************************************
 * CELL DEFORMATION
 *******************************************************************************

    ELASTIC STRAIN MATRIX (ADIMENSIONAL)

    1   -0.0410278592   -0.0000000000   -0.0000000000
    2   -0.0000000000   -0.0410278592   -0.0000000000
    3   -0.0000000000   -0.0000000000   -0.0410278592

 LATTICE PARAMETERS (ANGSTROMS AND DEGREES) OF
 (1) ORIGINAL PRIMITIVE CELL
 (2) ORIGINAL CRYSTALLOGRAPHIC CELL
 (3) DEFORMED PRIMITIVE CELL
 (4) DEFORMED CRYSTALLOGRAPHIC CELL

            A           B           C        ALPHA       BETA        GAMMA         VOL
 (2)    3.387419    3.387419    3.495173   90.000000   90.000000  120.000000   34.732597
 (4)    3.248441    3.248441    3.351774   90.000000   90.000000  120.000000   30.630581

 * CELL DEFORMATION COMPLETE - NO. OF SYMMOPS  12

 VOLUME FOUND IN RESTART FILE

 *******************************************************************************
 * CELL DEFORMATION
 *******************************************************************************

    ELASTIC STRAIN MATRIX (ADIMENSIONAL)

    1   -0.0366959893   -0.0000000000   -0.0000000000
    2   -0.0000000000   -0.0366959893   -0.0000000000
    3   -0.0000000000   -0.0000000000   -0.0366959893

 LATTICE PARAMETERS (ANGSTROMS AND DEGREES) OF
 (1) ORIGINAL PRIMITIVE CELL
 (2) ORIGINAL CRYSTALLOGRAPHIC CELL
 (3) DEFORMED PRIMITIVE CELL
 (4) DEFORMED CRYSTALLOGRAPHIC CELL

            A           B           C        ALPHA       BETA        GAMMA         VOL
 (2)    3.387419    3.387419    3.495173   90.000000   90.000000  120.000000   34.732597
 (4)    3.263115    3.263115    3.366914   90.000000   90.000000  120.000000   31.047552

 * CELL DEFORMATION COMPLETE - NO. OF SYMMOPS  12

 VOLUME FOUND IN RESTART FILE

 *******************************************************************************
 * CELL DEFORMATION
 *******************************************************************************

    ELASTIC STRAIN MATRIX (ADIMENSIONAL)

    1   -0.0323641194   -0.0000000000   -0.0000000000
    2   -0.0000000000   -0.0323641194   -0.0000000000
    3   -0.0000000000   -0.0000000000   -0.0323641194

 LATTICE PARAMETERS (ANGSTROMS AND DEGREES) OF
 (1) ORIGINAL PRIMITIVE CELL
 (2) ORIGINAL CRYSTALLOGRAPHIC CELL
 (3) DEFORMED PRIMITIVE CELL
 (4) DEFORMED CRYSTALLOGRAPHIC CELL

            A           B           C        ALPHA       BETA        GAMMA         VOL
 (2)    3.387419    3.387419    3.495173   90.000000   90.000000  120.000000   34.732597
 (4)    3.277789    3.277789    3.382055   90.000000   90.000000  120.000000   31.468291

 * CELL DEFORMATION COMPLETE - NO. OF SYMMOPS  12

 VOLUME FOUND IN RESTART FILE

 *******************************************************************************
 * CELL DEFORMATION
 *******************************************************************************

    ELASTIC STRAIN MATRIX (ADIMENSIONAL)

    1   -0.0280322495   -0.0000000000   -0.0000000000
    2   -0.0000000000   -0.0280322495   -0.0000000000
    3   -0.0000000000   -0.0000000000   -0.0280322495

 LATTICE PARAMETERS (ANGSTROMS AND DEGREES) OF
 (1) ORIGINAL PRIMITIVE CELL
 (2) ORIGINAL CRYSTALLOGRAPHIC CELL
 (3) DEFORMED PRIMITIVE CELL
 (4) DEFORMED CRYSTALLOGRAPHIC CELL

            A           B           C        ALPHA       BETA        GAMMA         VOL
 (2)    3.387419    3.387419    3.495173   90.000000   90.000000  120.000000   34.732597
 (4)    3.292462    3.292462    3.397196   90.000000   90.000000  120.000000   31.892813

 * CELL DEFORMATION COMPLETE - NO. OF SYMMOPS  12

 VOLUME FOUND IN RESTART FILE

 *******************************************************************************
 * CELL DEFORMATION
 *******************************************************************************

    ELASTIC STRAIN MATRIX (ADIMENSIONAL)

    1   -0.0237003796   -0.0000000000   -0.0000000000
    2   -0.0000000000   -0.0237003796   -0.0000000000
    3   -0.0000000000   -0.0000000000   -0.0237003796

 LATTICE PARAMETERS (ANGSTROMS AND DEGREES) OF
 (1) ORIGINAL PRIMITIVE CELL
 (2) ORIGINAL CRYSTALLOGRAPHIC CELL
 (3) DEFORMED PRIMITIVE CELL
 (4) DEFORMED CRYSTALLOGRAPHIC CELL

            A           B           C        ALPHA       BETA        GAMMA         VOL
 (2)    3.387419    3.387419    3.495173   90.000000   90.000000  120.000000   34.732597
 (4)    3.307136    3.307136    3.412336   90.000000   90.000000  120.000000   32.321136

 * CELL DEFORMATION COMPLETE - NO. OF SYMMOPS  12

 VOLUME FOUND IN RESTART FILE

 *******************************************************************************
 * CELL DEFORMATION
 *******************************************************************************

    ELASTIC STRAIN MATRIX (ADIMENSIONAL)

    1   -0.0193685098   -0.0000000000   -0.0000000000
    2   -0.0000000000   -0.0193685098   -0.0000000000
    3   -0.0000000000   -0.0000000000   -0.0193685098

 LATTICE PARAMETERS (ANGSTROMS AND DEGREES) OF
 (1) ORIGINAL PRIMITIVE CELL
 (2) ORIGINAL CRYSTALLOGRAPHIC CELL
 (3) DEFORMED PRIMITIVE CELL
 (4) DEFORMED CRYSTALLOGRAPHIC CELL

            A           B           C        ALPHA       BETA        GAMMA         VOL
 (2)    3.387419    3.387419    3.495173   90.000000   90.000000  120.000000   34.732597
 (4)    3.321810    3.321810    3.427477   90.000000   90.000000  120.000000   32.753278

 * CELL DEFORMATION COMPLETE - NO. OF SYMMOPS  12

 VOLUME FOUND IN RESTART FILE

 *******************************************************************************
 * CELL DEFORMATION
 *******************************************************************************

    ELASTIC STRAIN MATRIX (ADIMENSIONAL)

    1   -0.0150366399   -0.0000000000   -0.0000000000
    2   -0.0000000000   -0.0150366399   -0.0000000000
    3   -0.0000000000   -0.0000000000   -0.0150366399

 LATTICE PARAMETERS (ANGSTROMS AND DEGREES) OF
 (1) ORIGINAL PRIMITIVE CELL
 (2) ORIGINAL CRYSTALLOGRAPHIC CELL
 (3) DEFORMED PRIMITIVE CELL
 (4) DEFORMED CRYSTALLOGRAPHIC CELL

            A           B           C        ALPHA       BETA        GAMMA         VOL
 (2)    3.387419    3.387419    3.495173   90.000000   90.000000  120.000000   34.732597
 (4)    3.336484    3.336484    3.442618   90.000000   90.000000  120.000000   33.189254

 * CELL DEFORMATION COMPLETE - NO. OF SYMMOPS  12

 VOLUME FOUND IN RESTART FILE

 *******************************************************************************
 * CELL DEFORMATION
 *******************************************************************************

    ELASTIC STRAIN MATRIX (ADIMENSIONAL)

    1   -0.0107047700   -0.0000000000   -0.0000000000
    2   -0.0000000000   -0.0107047700   -0.0000000000
    3   -0.0000000000   -0.0000000000   -0.0107047700

 LATTICE PARAMETERS (ANGSTROMS AND DEGREES) OF
 (1) ORIGINAL PRIMITIVE CELL
 (2) ORIGINAL CRYSTALLOGRAPHIC CELL
 (3) DEFORMED PRIMITIVE CELL
 (4) DEFORMED CRYSTALLOGRAPHIC CELL

            A           B           C        ALPHA       BETA        GAMMA         VOL
 (2)    3.387419    3.387419    3.495173   90.000000   90.000000  120.000000   34.732597
 (4)    3.351158    3.351158    3.457758   90.000000   90.000000  120.000000   33.629081

 * CELL DEFORMATION COMPLETE - NO. OF SYMMOPS  12

 VOLUME FOUND IN RESTART FILE

 *******************************************************************************
 * CELL DEFORMATION
 *******************************************************************************

    ELASTIC STRAIN MATRIX (ADIMENSIONAL)

    1   -0.0063729001   -0.0000000000   -0.0000000000
    2   -0.0000000000   -0.0063729001   -0.0000000000
    3   -0.0000000000   -0.0000000000   -0.0063729001

 LATTICE PARAMETERS (ANGSTROMS AND DEGREES) OF
 (1) ORIGINAL PRIMITIVE CELL
 (2) ORIGINAL CRYSTALLOGRAPHIC CELL
 (3) DEFORMED PRIMITIVE CELL
 (4) DEFORMED CRYSTALLOGRAPHIC CELL

            A           B           C        ALPHA       BETA        GAMMA         VOL
 (2)    3.387419    3.387419    3.495173   90.000000   90.000000  120.000000   34.732597
 (4)    3.365832    3.365832    3.472899   90.000000   90.000000  120.000000   34.072778

 * CELL DEFORMATION COMPLETE - NO. OF SYMMOPS  12

 VOLUME FOUND IN RESTART FILE

 *******************************************************************************
 * CELL DEFORMATION
 *******************************************************************************

    ELASTIC STRAIN MATRIX (ADIMENSIONAL)

    1   -0.0020410302   -0.0000000000   -0.0000000000
    2   -0.0000000000   -0.0020410302   -0.0000000000
    3   -0.0000000000   -0.0000000000   -0.0020410302

 LATTICE PARAMETERS (ANGSTROMS AND DEGREES) OF
 (1) ORIGINAL PRIMITIVE CELL
 (2) ORIGINAL CRYSTALLOGRAPHIC CELL
 (3) DEFORMED PRIMITIVE CELL
 (4) DEFORMED CRYSTALLOGRAPHIC CELL

            A           B           C        ALPHA       BETA        GAMMA         VOL
 (2)    3.387419    3.387419    3.495173   90.000000   90.000000  120.000000   34.732597
 (4)    3.380506    3.380506    3.488039   90.000000   90.000000  120.000000   34.520360

 * CELL DEFORMATION COMPLETE - NO. OF SYMMOPS  12

 VOLUME FOUND IN RESTART FILE

 *******************************************************************************
 * CELL DEFORMATION
 *******************************************************************************

    ELASTIC STRAIN MATRIX (ADIMENSIONAL)

    1    0.0022908397    0.0000000000    0.0000000000
    2    0.0000000000    0.0022908397    0.0000000000
    3    0.0000000000    0.0000000000    0.0022908397

 LATTICE PARAMETERS (ANGSTROMS AND DEGREES) OF
 (1) ORIGINAL PRIMITIVE CELL
 (2) ORIGINAL CRYSTALLOGRAPHIC CELL
 (3) DEFORMED PRIMITIVE CELL
 (4) DEFORMED CRYSTALLOGRAPHIC CELL

            A           B           C        ALPHA       BETA        GAMMA         VOL
 (2)    3.387419    3.387419    3.495173   90.000000   90.000000  120.000000   34.732597
 (4)    3.395179    3.395179    3.503180   90.000000   90.000000  120.000000   34.971845

 * CELL DEFORMATION COMPLETE - NO. OF SYMMOPS  12

 VOLUME FOUND IN RESTART FILE

 *******************************************************************************
 * CELL DEFORMATION
 *******************************************************************************

    ELASTIC STRAIN MATRIX (ADIMENSIONAL)

    1    0.0066227096    0.0000000000    0.0000000000
    2    0.0000000000    0.0066227096    0.0000000000
    3    0.0000000000    0.0000000000    0.0066227096

 LATTICE PARAMETERS (ANGSTROMS AND DEGREES) OF
 (1) ORIGINAL PRIMITIVE CELL
 (2) ORIGINAL CRYSTALLOGRAPHIC CELL
 (3) DEFORMED PRIMITIVE CELL
 (4) DEFORMED CRYSTALLOGRAPHIC CELL

            A           B           C        ALPHA       BETA        GAMMA         VOL
 (2)    3.387419    3.387419    3.495173   90.000000   90.000000  120.000000   34.732597
 (4)    3.409853    3.409853    3.518321   90.000000   90.000000  120.000000   35.427249

 * CELL DEFORMATION COMPLETE - NO. OF SYMMOPS  12

 VOLUME FOUND IN RESTART FILE

 *******************************************************************************
 * CELL DEFORMATION
 *******************************************************************************

    ELASTIC STRAIN MATRIX (ADIMENSIONAL)

    1    0.0000000000    0.0000000000    0.0000000000
    2    0.0000000000    0.0000000000    0.0000000000
    3    0.0000000000    0.0000000000    0.0000000000

 LATTICE PARAMETERS (ANGSTROMS AND DEGREES) OF
 (1) ORIGINAL PRIMITIVE CELL
 (2) ORIGINAL CRYSTALLOGRAPHIC CELL
 (3) DEFORMED PRIMITIVE CELL
 (4) DEFORMED CRYSTALLOGRAPHIC CELL

            A           B           C        ALPHA       BETA        GAMMA         VOL
 (2)    3.387419    3.387419    3.495173   90.000000   90.000000  120.000000   34.732597
 (4)    3.387419    3.387419    3.495173   90.000000   90.000000  120.000000   34.732597

 * CELL DEFORMATION COMPLETE - NO. OF SYMMOPS  12

 VOLUME FOUND IN RESTART FILE

 EOSEOSEOSEOSEOSEOSEOSEOSEOSEOSEOSEOSEOSEOSEOSEOSEOSEOSEOSEOSEOSEOSEOSEOSEOSEOS

   VOLUME (A^3)   ENERGY (a.u.)  DIFFERENCE RELATIVE
                                    TO CENTRAL
  3.01955893E+01 -6.37019986E+01  1.56017917E-02
  3.06163976E+01 -6.37050271E+01  1.25733591E-02
  3.10366161E+01 -6.37076694E+01  9.93103129E-03
  3.14601414E+01 -6.37099702E+01  7.63021862E-03
  3.18870759E+01 -6.37119432E+01  5.65722903E-03
  3.23174142E+01 -6.37135998E+01  4.00058451E-03
  3.27511728E+01 -6.37149530E+01  2.64747166E-03
  3.31882828E+01 -6.37160145E+01  1.58592890E-03
  3.36285337E+01 -6.37167965E+01  8.03959318E-04
  3.40702345E+01 -6.37173095E+01  2.90932931E-04
  3.43461675E+01 -6.37174996E+01  1.00805196E-04
  3.49644784E+01 -6.37175857E+01  1.46844286E-05
  3.54261516E+01 -6.37173616E+01  2.38874170E-04

 SORTING VOLUMES/ENERGIES

     VOLUME (A^3)    ENERGY (a.u.)

      30.195589   -6.370199863738E+01
      30.616398   -6.370502706991E+01
      31.036616   -6.370766939777E+01
      31.460141   -6.370997021044E+01
      31.887076   -6.371194320003E+01
      32.317414   -6.371359984455E+01
      32.751173   -6.371495295740E+01
      33.188283   -6.371601450016E+01
      33.628534   -6.371679646974E+01
      34.070234   -6.371730949613E+01
      34.346167   -6.371749962386E+01
      34.662057   -6.371760042906E+01
      34.964478   -6.371758574463E+01
      35.426152   -6.371736155489E+01

 +++++++ FITTING USING ALL POINTS +++++++

 USERS OF THIS EOS MODULE SHOULD KINDLY CITE THE FOLLOWING REFERENCE:

 A. Erba, A. Mahmoud, D. Belmonte and R. Dovesi, J. Chem. Phys., 140, 124703 (2014)



 EQUATION OF STATE             VOL(A^3)        E(AU)       BM(GPa)   BM PRIME
 -------------------------------------------------------------------------------
 MURNAGHAN 1944                 34.7673       -63.71760925  180.21     3.76
 BIRCH-MURNAGHAN 1947           34.7678       -63.71760839  179.42     3.97
 POIRIER-TARANTOLA 1998         34.7685       -63.71760762  178.66     4.17
 VINET 1987                     34.7683       -63.71760801  179.02     4.06

 POLYNOMIAL FITTING            VOL(A^3)        E(AU)       BM(GPa)
 -------------------------------------------------------------------------------
 THIRD ORDER POLYNOMIAL         34.7735       -63.71760133  172.30
 FOURTH ORDER POLYNOMIAL        34.7696       -63.71760753  178.47
 FIFTH ORDER POLYNOMIAL         34.7695       -63.71760744  178.38


 +++++++++++++++++++++++++++++++++++++++++++++++++++++++++++++++++++++++++++++++
 THERMODYNAMIC FUNCTIONS OBTAINED AT 0 K WITH EOS: MURNAGHAN 1944           
 +++++++++++++++++++++++++++++++++++++++++++++++++++++++++++++++++++++++++++++++

 V = VOLUME, P = PRESSURE, E = ENERGY, G = GIBBS FREE ENERGY, B = BULK MODULUS

 V (A^3)   P (GPa)        E (a.u.)            G (a.u.)      B (GPa)

   34.77     -0.00       -63.71760925       -63.71760925     180.21
   34.54      1.21       -63.71757769       -63.70801661     184.75
   34.32      2.41       -63.71748559       -63.69848643     189.28
   34.10      3.62       -63.71733657       -63.68901683     193.82
   33.89      4.83       -63.71713398       -63.67960602     198.36
   33.69      6.03       -63.71688090       -63.67025230     202.90
   33.49      7.24       -63.71658019       -63.66095406     207.44
   33.30      8.45       -63.71623449       -63.65170976     211.98
   33.11      9.66       -63.71584625       -63.64251794     216.52
   32.93     10.86       -63.71541776       -63.63337723     221.06
   32.75     12.07       -63.71495113       -63.62428628     225.60
   32.58     13.28       -63.71444834       -63.61524385     230.14
   32.41     14.48       -63.71391123       -63.60624871     234.68
   32.25     15.69       -63.71334154       -63.59729972     239.22
   32.08     16.90       -63.71274086       -63.58839576     243.76
   31.93     18.10       -63.71211072       -63.57953579     248.30
   31.77     19.31       -63.71145252       -63.57071877     252.84
   31.62     20.52       -63.71076759       -63.56194375     257.38
   31.48     21.72       -63.71005719       -63.55320978     261.92
   31.33     22.93       -63.70932249       -63.54451596     266.46
   31.19     24.14       -63.70856460       -63.53586144     271.00
   31.06     25.34       -63.70778455       -63.52724538     275.54
   30.92     26.55       -63.70698333       -63.51866697     280.08
   30.79     27.76       -63.70616188       -63.51012546     284.62
   30.66     28.97       -63.70532106       -63.50162008     289.16
   30.53     30.17       -63.70446171       -63.49315014     293.70
   30.41     31.38       -63.70358461       -63.48471493     298.23
   30.29     32.59       -63.70269050       -63.47631379     302.77
   30.17     33.79       -63.70178010       -63.46794608     307.31
   30.05     35.00       -63.70085407       -63.45961116     311.85


 +++++++++++++++++++++++++++++++++++++++++++++++++++++++++++++++++++++++++++++++
 THERMODYNAMIC FUNCTIONS OBTAINED AT 0 K WITH EOS: BIRCH-MURNAGHAN 1947     
 +++++++++++++++++++++++++++++++++++++++++++++++++++++++++++++++++++++++++++++++

 V = VOLUME, P = PRESSURE, E = ENERGY, G = GIBBS FREE ENERGY, B = BULK MODULUS

 V (A^3)   P (GPa)        E (a.u.)            G (a.u.)      B (GPa)

   34.77      0.00       -63.71760839       -63.71760316     179.42
   34.54      1.21       -63.71757668       -63.70801021     184.20
   34.31      2.41       -63.71748434       -63.69848070     188.94
   34.10      3.62       -63.71733512       -63.68901239     193.65
   33.89      4.83       -63.71713240       -63.67960132     198.34
   33.69      6.03       -63.71687938       -63.67024882     203.00
   33.49      7.24       -63.71657886       -63.66095038     207.64
   33.30      8.45       -63.71623357       -63.65170727     212.25
   33.11      9.66       -63.71584583       -63.64251494     216.85
   32.93     10.86       -63.71541802       -63.63337512     221.42
   32.75     12.07       -63.71495210       -63.62428367     225.96
   32.58     13.28       -63.71445004       -63.61524065     230.49
   32.41     14.48       -63.71391370       -63.60624540     235.00
   32.25     15.69       -63.71334471       -63.59729658     239.50
   32.09     16.90       -63.71274459       -63.58839211     243.97
   31.93     18.10       -63.71211486       -63.57953207     248.43
   31.77     19.31       -63.71145692       -63.57071602     252.87
   31.62     20.52       -63.71077184       -63.56194007     257.29
   31.48     21.72       -63.71006097       -63.55320558     261.70
   31.33     22.93       -63.70932561       -63.54451362     266.09
   31.19     24.14       -63.70856642       -63.53585871     270.47
   31.06     25.35       -63.70778446       -63.52724095     274.84
   30.92     26.55       -63.70698102       -63.51866333     279.19
   30.79     27.76       -63.70615671       -63.51012218     283.53
   30.66     28.97       -63.70531235       -63.50161661     287.86
   30.53     30.17       -63.70444902       -63.49314876     292.17
   30.41     31.38       -63.70356703       -63.48471379     296.47
   30.28     32.59       -63.70266733       -63.47631324     300.76
   30.16     33.79       -63.70175041       -63.46794503     305.04
   30.05     35.00       -63.70081751       -63.45961380     309.30


 +++++++++++++++++++++++++++++++++++++++++++++++++++++++++++++++++++++++++++++++
 THERMODYNAMIC FUNCTIONS OBTAINED AT 0 K WITH EOS: POIRIER-TARANTOLA 1998   
 +++++++++++++++++++++++++++++++++++++++++++++++++++++++++++++++++++++++++++++++

 V = VOLUME, P = PRESSURE, E = ENERGY, G = GIBBS FREE ENERGY, B = BULK MODULUS

 V (A^3)   P (GPa)        E (a.u.)            G (a.u.)      B (GPa)

   34.77      0.00       -63.71760762       -63.71760185     178.66
   34.54      1.21       -63.71757581       -63.70800986     183.66
   34.31      2.41       -63.71748324       -63.69847935     188.59
   34.10      3.62       -63.71733381       -63.68901078     193.47
   33.89      4.83       -63.71713099       -63.67960044     198.30
   33.69      6.03       -63.71687804       -63.67024946     203.07
   33.49      7.24       -63.71657767       -63.66095035     207.80
   33.30      8.45       -63.71623274       -63.65170815     212.48
   33.11      9.66       -63.71584542       -63.64251467     217.12
   32.93     10.86       -63.71541819       -63.63337512     221.72
   32.75     12.07       -63.71495292       -63.62428375     226.28
   32.58     13.28       -63.71445159       -63.61524136     230.80
   32.41     14.48       -63.71391604       -63.60624794     235.29
   32.25     15.69       -63.71334758       -63.59729725     239.74
   32.09     16.90       -63.71274802       -63.58839306     244.16
   31.93     18.10       -63.71211869       -63.57953307     248.55
   31.78     19.31       -63.71146097       -63.57071713     252.90
   31.63     20.52       -63.71077589       -63.56194158     257.23
   31.48     21.72       -63.71006454       -63.55320501     261.53
   31.34     22.93       -63.70932840       -63.54451153     265.80
   31.19     24.14       -63.70856813       -63.53585583     270.05
   31.06     25.35       -63.70778503       -63.52724128     274.27
   30.92     26.55       -63.70697951       -63.51866149     278.47
   30.79     27.76       -63.70615302       -63.51012233     282.64
   30.66     28.97       -63.70530573       -63.50161651     286.79
   30.53     30.17       -63.70443866       -63.49314603     290.92
   30.40     31.38       -63.70355279       -63.48471274     295.02
   30.28     32.59       -63.70264868       -63.47631488     299.11
   30.16     33.79       -63.70172643       -63.46794687     303.17
   30.04     35.00       -63.70078762       -63.45961668     307.22


 +++++++++++++++++++++++++++++++++++++++++++++++++++++++++++++++++++++++++++++++
 THERMODYNAMIC FUNCTIONS OBTAINED AT 0 K WITH EOS: VINET 1987               
 +++++++++++++++++++++++++++++++++++++++++++++++++++++++++++++++++++++++++++++++

 V = VOLUME, P = PRESSURE, E = ENERGY, G = GIBBS FREE ENERGY, B = BULK MODULUS

 V (A^3)   P (GPa)        E (a.u.)            G (a.u.)      B (GPa)

   34.77      0.00       -63.71760801       -63.71760341     179.03
   34.54      1.21       -63.71757625       -63.70800975     183.91
   34.31      2.41       -63.71748381       -63.69848175     188.75
   34.10      3.62       -63.71733445       -63.68901204     193.55
   33.89      4.83       -63.71713169       -63.67960216     198.30
   33.69      6.04       -63.71687861       -63.67024764     203.03
   33.49      7.24       -63.71657824       -63.66095175     207.71
   33.30      8.45       -63.71623305       -63.65170707     212.36
   33.11      9.66       -63.71584551       -63.64251435     216.98
   32.93     10.86       -63.71541805       -63.63337597     221.57
   32.75     12.07       -63.71495239       -63.62428316     226.13
   32.58     13.28       -63.71445077       -63.61524150     230.66
   32.41     14.48       -63.71391474       -63.60624543     235.16
   32.25     15.69       -63.71334611       -63.59729650     239.63
   32.09     16.90       -63.71274636       -63.58839295     244.08
   31.93     18.10       -63.71211683       -63.57953225     248.51
   31.78     19.31       -63.71145911       -63.57071694     252.91
   31.63     20.52       -63.71077402       -63.56194040     257.29
   31.48     21.72       -63.71006316       -63.55320704     261.64
   31.33     22.93       -63.70932729       -63.54451200     265.97
   31.19     24.14       -63.70856783       -63.53585898     270.28
   31.06     25.35       -63.70778531       -63.52724209     274.58
   30.92     26.55       -63.70698098       -63.51866429     278.85
   30.79     27.76       -63.70615543       -63.51012190     283.10
   30.66     28.97       -63.70530977       -63.50161731     287.34
   30.53     30.17       -63.70444440       -63.49314605     291.55
   30.41     31.38       -63.70356064       -63.48471329     295.75
   30.28     32.59       -63.70265874       -63.47631393     299.93
   30.16     33.79       -63.70173916       -63.46794581     304.10
   30.04     35.00       -63.70080310       -63.45961350     308.25

 EOSEOSEOSEOSEOSEOSEOSEOSEOSEOSEOSEOSEOSEOSEOSEOSEOSEOSEOSEOSEOSEOSEOSEOSEOSEOS

 TTTTTTTTTTTTTTTTTTTTTTTTTTTTTT END         TELAPSE        1.99 TCPU        1.76
 EEEEEEEEEE TERMINATION  DATE 24 07 2025 TIME 08:08:41.7
NODE    0 CPU TIME =         1.758
    TOTAL CPU TIME =         1.758
================================================================================
Time: Thu Jul 24 08:08:41 AM CDT 2025
Job terminated
================================================================================
Contents of temporary directory in master node c031:
total 98319
-rw-r--r-- 1 fbodo linuxusers         0 Jul 24 08:08 dffit3.dat
-rw-r--r-- 1 fbodo linuxusers         0 Jul 24 08:08 diis_err1.pe0
-rw-r--r-- 1 fbodo linuxusers         0 Jul 24 08:08 diis_err2.pe0
-rw-r--r-- 1 fbodo linuxusers         0 Jul 24 08:08 diis_Fg
-rw-r--r-- 1 fbodo linuxusers         0 Jul 24 08:08 diis_Sk.pe0
-rw-r--r-- 1 fbodo linuxusers      1815 Jul 24 08:08 EOSINFO.DAT
-rw-r--r-- 1 fbodo linuxusers         0 Jul 24 08:08 fort.10.pe0
-rw-r--r-- 1 fbodo linuxusers         0 Jul 24 08:08 fort.11.pe0
-rw-r--r-- 1 fbodo linuxusers         0 Jul 24 08:08 fort.12
-rw-r--r-- 1 fbodo linuxusers         0 Jul 24 08:08 fort.18.pe0
-rw-r--r-- 1 fbodo linuxusers         0 Jul 24 08:08 fort.19.pe0
-rw-r--r-- 1 fbodo linuxusers         0 Jul 24 08:08 fort.1.pe0
-rw-r--r-- 1 fbodo linuxusers         0 Jul 24 08:08 fort.20
-rw-r--r-- 1 fbodo linuxusers         0 Jul 24 08:08 fort.28.pe0
-rw-r--r-- 1 fbodo linuxusers         0 Jul 24 08:08 fort.29.pe0
-rw-r--r-- 1 fbodo linuxusers       175 Jul 24 08:08 fort.33
lrwxrwxrwx 1 fbodo linuxusers        78 Jul 24 08:08 fort.34 -> /users/fbodo/Application/fbodo/MSSC2025/EOS/restart2_bis/hTaAs_lda_EOS_ext.f34
-rw-r--r-- 1 fbodo linuxusers         0 Jul 24 08:08 fort.38.pe0
-rw-r--r-- 1 fbodo linuxusers         0 Jul 24 08:08 fort.3.pe0
-rw-r--r-- 1 fbodo linuxusers         0 Jul 24 08:08 fort.40.pe0
-rw-r--r-- 1 fbodo linuxusers   1093600 Jul 24 08:08 fort.61.pe0
-rw-r--r-- 1 fbodo linuxusers    501424 Jul 24 08:08 fort.62.pe0
-rw-r--r-- 1 fbodo linuxusers         0 Jul 24 08:08 fort.82.pe0
-rw-r--r-- 1 fbodo linuxusers         0 Jul 24 08:08 fort.83.pe0
-rw-r--r-- 1 fbodo linuxusers         0 Jul 24 08:08 fort.8.pe0
lrwxrwxrwx 1 fbodo linuxusers        77 Jul 24 08:08 fort.9 -> /users/fbodo/Application/fbodo/MSSC2025/EOS/restart2_bis/hTaAs_lda_EOS_ext.f9
-rw-r--r-- 1 fbodo linuxusers         0 Jul 24 08:08 fort.95.pe0
-rw-r--r-- 1 fbodo linuxusers      1513 Jul 24 08:08 INPUT
-rwxr-xr-x 1 fbodo linuxusers 112783328 Jul 24 08:08 Pcrystal
lrwxrwxrwx 1 fbodo linuxusers        79 Jul 24 08:08 SCFOUT.LOG -> /users/fbodo/Application/fbodo/MSSC2025/EOS/restart2_bis/hTaAs_lda_EOS_ext.out2
================================================================================
Copying output file back on run directory...
================================================================================
Removing temporary directory /lustre/scratch/client/users/fbodo/prova/tmp_p1435233 from each node...
Job terminated
