###############################################################################
#
#                    CRYSTAL14 CIF FILE
#
###############################################################################

data_OPT_STEP_1

_symmetry_space_group_name_H-M 'I -4 3 M'
_cell_length_a     17.03827393
_cell_length_b     17.03827393
_cell_length_c     17.03827393
_cell_angle_alpha   90.000000
_cell_angle_beta   90.000000
_cell_angle_gamma   90.000000

loop_
_atom_site_label
_atom_site_fract_x
_atom_site_fract_y
_atom_site_fract_z
N1  9.031656790010E-02  4.669787434993E-01 -1.825150588943E-01
C2  1.265603522775E-01  3.948497088301E-01 -1.833013212653E-01
H3  1.081448492126E-01  3.490532060137E-01 -2.231307998750E-01
H4  4.037364601579E-02 -4.003186227460E-01 -1.140107263787E-01
ZN5 -2.064323616068E-17  5.000000000000E-01 -2.500000000000E-01
C6  1.254519867701E-01 -4.917992562218E-01 -1.254519867701E-01
C7  1.028449503926E-01 -4.099577946950E-01 -1.028449503926E-01
H8  1.358119558224E-01 -3.657513512194E-01 -1.358119558224E-01


#===END

data_OPT_STEP_2

_symmetry_space_group_name_H-M 'I -4 3 M'
_cell_length_a     17.03827393
_cell_length_b     17.03827393
_cell_length_c     17.03827393
_cell_angle_alpha   90.000000
_cell_angle_beta   90.000000
_cell_angle_gamma   90.000000

loop_
_atom_site_label
_atom_site_fract_x
_atom_site_fract_y
_atom_site_fract_z
N1  9.031656790010E-02  4.669787434993E-01 -1.825150588943E-01
C2  1.265603522775E-01  3.948497088301E-01 -1.833013212653E-01
H3  1.081448492126E-01  3.490532060137E-01 -2.231307998750E-01
H4  4.037364601579E-02 -4.003186227460E-01 -1.140107263787E-01
ZN5 -5.000000000000E-01 -5.517035100388E-17  2.500000000000E-01
C6  1.254519867701E-01 -4.917992562218E-01 -1.254519867701E-01
C7  1.028449503926E-01 -4.099577946950E-01 -1.028449503926E-01
H8  1.358119558224E-01 -3.657513512194E-01 -1.358119558224E-01


#===END
